<?xml version="1.0" encoding="UTF-8"?>

<!-- generated on 01/14/20 08:54:21 by Eclipse SUMO netedit Version 1.4.0
<configuration xmlns:xsi="http://www.w3.org/2001/XMLSchema-instance" xsi:noNamespaceSchemaLocation="http://sumo.dlr.de/xsd/netconvertConfiguration.xsd">

    <input>
        <sumo-net-file value="C:\Schqwinformatics\Masterarbeit\Repositories\Flow\flow\examples\sn.net.xml"/>
    </input>

    <output>
        <output-file value="C:\Schqwinformatics\Masterarbeit\Repositories\Flow\flow\examples\sn.net.xml"/>
        <output.street-names value="true"/>
    </output>

    <processing>
        <geometry.min-radius.fix.railways value="false"/>
        <geometry.max-grade.fix value="false"/>
        <offset.disable-normalization value="true"/>
        <lefthand value="false"/>
    </processing>

    <junctions>
        <no-internal-links value="false"/>
        <no-turnarounds value="true"/>
        <junctions.corner-detail value="5"/>
        <junctions.limit-turn-speed value="5.5"/>
        <rectangular-lane-cut value="false"/>
    </junctions>

    <pedestrian>
        <walkingareas value="false"/>
    </pedestrian>

    <report>
        <aggregate-warnings value="5"/>
    </report>

</configuration>
-->

<net version="1.3" junctionCornerDetail="5" limitTurnSpeed="5.50" xmlns:xsi="http://www.w3.org/2001/XMLSchema-instance" xsi:noNamespaceSchemaLocation="http://sumo.dlr.de/xsd/net_file.xsd">

    <location netOffset="-478438.03,-5731420.75" convBoundary="523.01,579.13,2345.79,2065.46" origBoundary="8.673358,51.708973,8.737722,51.761864" projParameter="+proj=utm +zone=32 +ellps=WGS84 +datum=WGS84 +units=m +no_defs"/>

    <type id="highway.bridleway" priority="1" numLanes="1" speed="2.78" allow="pedestrian" oneway="1" width="2.00"/>
    <type id="highway.bus_guideway" priority="1" numLanes="1" speed="27.78" allow="bus" oneway="1"/>
    <type id="highway.cycleway" priority="1" numLanes="1" speed="8.33" allow="bicycle" oneway="0" width="1.00"/>
    <type id="highway.footway" priority="1" numLanes="1" speed="2.78" allow="pedestrian" oneway="1" width="2.00"/>
    <type id="highway.ford" priority="1" numLanes="1" speed="2.78" allow="army" oneway="0"/>
    <type id="highway.living_street" priority="3" numLanes="1" speed="2.78" disallow="bus tram rail_urban rail rail_electric ship" oneway="0"/>
    <type id="highway.motorway" priority="13" numLanes="2" speed="44.44" allow="private emergency authority army vip passenger hov taxi bus coach delivery truck trailer motorcycle evehicle custom1 custom2" oneway="1"/>
    <type id="highway.motorway_link" priority="12" numLanes="1" speed="22.22" allow="private emergency authority army vip passenger hov taxi bus coach delivery truck trailer motorcycle evehicle custom1 custom2" oneway="1"/>
    <type id="highway.path" priority="1" numLanes="1" speed="2.78" allow="pedestrian bicycle" oneway="1" width="2.00"/>
    <type id="highway.pedestrian" priority="1" numLanes="1" speed="2.78" allow="pedestrian" oneway="1" width="2.00"/>
    <type id="highway.primary" priority="9" numLanes="2" speed="27.78" disallow="tram rail_urban rail rail_electric ship" oneway="0"/>
    <type id="highway.primary_link" priority="8" numLanes="1" speed="22.22" disallow="tram rail_urban rail rail_electric ship" oneway="0"/>
    <type id="highway.raceway" priority="14" numLanes="2" speed="83.33" allow="vip" oneway="0"/>
    <type id="highway.residential" priority="4" numLanes="1" speed="13.89" disallow="tram rail_urban rail rail_electric ship" oneway="0"/>
    <type id="highway.secondary" priority="7" numLanes="2" speed="27.78" disallow="tram rail_urban rail rail_electric ship" oneway="0"/>
    <type id="highway.secondary_link" priority="6" numLanes="1" speed="22.22" disallow="tram rail_urban rail rail_electric ship" oneway="0"/>
    <type id="highway.service" priority="2" numLanes="1" speed="5.56" allow="pedestrian delivery bicycle" oneway="0"/>
    <type id="highway.stairs" priority="1" numLanes="1" speed="1.39" allow="pedestrian" oneway="1" width="2.00"/>
    <type id="highway.step" priority="1" numLanes="1" speed="1.39" allow="pedestrian" oneway="1" width="2.00"/>
    <type id="highway.steps" priority="1" numLanes="1" speed="1.39" allow="pedestrian" oneway="1" width="2.00"/>
    <type id="highway.tertiary" priority="6" numLanes="1" speed="22.22" disallow="tram rail_urban rail rail_electric ship" oneway="0"/>
    <type id="highway.tertiary_link" priority="5" numLanes="1" speed="22.22" disallow="tram rail_urban rail rail_electric ship" oneway="0"/>
    <type id="highway.track" priority="1" numLanes="1" speed="5.56" disallow="tram rail_urban rail rail_electric ship" oneway="0"/>
    <type id="highway.trunk" priority="11" numLanes="2" speed="27.78" disallow="pedestrian bicycle tram rail_urban rail rail_electric ship" oneway="0"/>
    <type id="highway.trunk_link" priority="10" numLanes="1" speed="22.22" disallow="pedestrian bicycle tram rail_urban rail rail_electric ship" oneway="0"/>
    <type id="highway.unclassified" priority="5" numLanes="1" speed="13.89" disallow="tram rail_urban rail rail_electric ship" oneway="0"/>
    <type id="highway.unsurfaced" priority="1" numLanes="1" speed="8.33" disallow="tram rail_urban rail rail_electric ship" oneway="0"/>
    <type id="railway.light_rail" priority="15" numLanes="1" speed="27.78" allow="rail_urban" oneway="1"/>
    <type id="railway.preserved" priority="15" numLanes="1" speed="27.78" allow="rail" oneway="1"/>
    <type id="railway.rail" priority="15" numLanes="1" speed="83.33" allow="rail rail_electric" oneway="1"/>
    <type id="railway.subway" priority="15" numLanes="1" speed="27.78" allow="rail_urban" oneway="1"/>
    <type id="railway.tram" priority="15" numLanes="1" speed="13.89" allow="tram" oneway="1"/>

    <edge id=":1122496585_0" function="internal">
        <lane id=":1122496585_0_0" index="0" allow="pedestrian bicycle" speed="2.78" length="5.01" width="2.00" shape="1722.53,1434.08 1720.38,1438.61"/>
    </edge>
    <edge id=":1122496585_w0" function="walkingarea">
        <lane id=":1122496585_w0_0" index="0" allow="pedestrian" speed="1.00" length="3.79" width="2.00" shape="1722.64,1438.13 1723.71,1436.45 1723.43,1434.50 1721.62,1433.65 1719.48,1438.18 1721.28,1439.03 1722.33,1438.00 1722.06,1438.01 1721.84,1438.14 1721.64,1438.38 1721.46,1438.68"/>
    </edge>
    <edge id=":1317844564_0" function="internal">
        <lane id=":1317844564_0_0" index="0" allow="pedestrian bicycle" speed="2.78" length="5.84" width="2.00" shape="1751.27,1393.60 1749.55,1394.61 1748.63,1394.66 1748.51,1393.75 1749.18,1391.87"/>
    </edge>
    <edge id=":1317844564_1" function="internal">
        <lane id=":1317844564_1_0" index="0" allow="pedestrian bicycle" speed="2.78" length="6.49" width="2.00" shape="1744.64,1395.67 1745.82,1395.78 1746.97,1395.18 1748.09,1393.88 1749.18,1391.87"/>
    </edge>
    <edge id=":1317844564_2" function="internal">
        <lane id=":1317844564_2_0" index="0" allow="pedestrian bicycle" speed="2.78" length="7.75" width="2.00" shape="1745.97,1398.92 1749.18,1391.87"/>
    </edge>
    <edge id=":1317844564_w0" function="walkingarea">
        <lane id=":1317844564_w0_0" index="0" allow="pedestrian" speed="1.00" length="5.73" width="2.00" shape="1751.85,1394.42 1750.70,1392.78 1750.09,1392.28 1748.27,1391.45 1745.00,1394.74 1744.28,1396.60 1745.06,1398.51 1746.88,1399.34 1750.59,1395.26 1749.61,1395.88 1748.83,1396.44 1748.18,1397.09 1747.55,1398.01"/>
    </edge>
    <edge id=":1317844568_0" function="internal">
        <lane id=":1317844568_0_0" index="0" allow="pedestrian bicycle" speed="2.78" length="5.18" width="2.00" shape="1776.80,1369.51 1775.36,1369.02 1774.30,1368.90 1773.23,1368.79 1771.80,1368.29"/>
    </edge>
    <edge id=":1317844568_1" function="internal">
        <lane id=":1317844568_1_0" index="0" allow="pedestrian bicycle" speed="2.78" length="5.78" width="2.00" shape="1775.99,1365.27 1775.03,1367.00 1774.01,1368.08 1772.93,1368.51 1771.80,1368.29"/>
    </edge>
    <edge id=":1317844568_2" function="internal">
        <lane id=":1317844568_2_0" index="0" allow="pedestrian bicycle" speed="2.78" length="2.92" width="2.00" shape="1772.64,1366.48 1773.11,1367.25 1773.13,1367.80 1772.69,1368.15 1771.80,1368.29"/>
    </edge>
    <edge id=":1317844568_3" function="internal">
        <lane id=":1317844568_3_0" index="0" allow="pedestrian bicycle" speed="2.78" length="4.05" width="2.00" shape="1772.96,1371.62 1773.31,1370.56 1773.23,1369.65 1772.73,1368.90 1771.80,1368.29"/>
    </edge>
    <edge id=":1317844568_w0" function="walkingarea">
        <lane id=":1317844568_w0_0" index="0" allow="pedestrian" speed="1.00" length="4.55" width="2.00" shape="1776.38,1370.42 1777.22,1368.61 1776.90,1365.68 1775.08,1364.85 1773.06,1365.57 1772.22,1367.38 1772.22,1367.38 1771.38,1369.20 1772.06,1371.17 1773.85,1372.07 1775.92,1370.29 1775.48,1370.32 1775.06,1370.51 1774.64,1370.87 1774.24,1371.38"/>
    </edge>
    <edge id=":1317844570_0" function="internal">
        <lane id=":1317844570_0_0" index="0" allow="pedestrian bicycle" speed="2.78" length="4.05" width="2.00" shape="1767.23,1358.15 1766.30,1357.54 1765.79,1356.78 1765.69,1355.87 1766.01,1354.82"/>
    </edge>
    <edge id=":1317844570_1" function="internal">
        <lane id=":1317844570_1_0" index="0" allow="pedestrian bicycle" speed="2.78" length="5.02" width="2.00" shape="1763.93,1359.39 1766.01,1354.82"/>
    </edge>
    <edge id=":1317844570_w0" function="walkingarea">
        <lane id=":1317844570_w0_0" index="0" allow="pedestrian" speed="1.00" length="4.03" width="2.00" shape="1766.81,1359.06 1767.66,1357.25 1766.91,1355.24 1765.10,1354.39 1763.02,1358.98 1764.85,1359.79 1766.38,1358.90 1765.99,1358.86 1765.64,1358.92 1765.33,1359.10 1765.07,1359.39"/>
    </edge>
    <edge id=":1317844572_0" function="internal">
        <lane id=":1317844572_0_0" index="0" allow="pedestrian bicycle" speed="2.78" length="5.80" width="2.00" shape="1759.66,1375.24 1758.70,1374.56 1758.29,1373.48 1758.42,1372.00 1759.09,1370.13"/>
    </edge>
    <edge id=":1317844572_1" function="internal">
        <lane id=":1317844572_1_0" index="0" allow="pedestrian bicycle" speed="2.78" length="2.91" width="2.00" shape="1759.66,1375.24 1759.15,1374.50 1759.11,1373.95 1759.52,1373.58 1760.40,1373.39"/>
    </edge>
    <edge id=":1317844572_2" function="internal">
        <lane id=":1317844572_2_0" index="0" allow="pedestrian bicycle" speed="2.78" length="4.97" width="2.00" shape="1755.28,1372.38 1756.40,1372.61 1757.40,1372.31 1758.30,1371.48 1759.09,1370.13"/>
    </edge>
    <edge id=":1317844572_3" function="internal">
        <lane id=":1317844572_3_0" index="0" allow="pedestrian bicycle" speed="2.78" length="5.25" width="2.00" shape="1755.28,1372.38 1756.76,1372.83 1757.84,1372.90 1758.92,1372.97 1760.40,1373.39"/>
    </edge>
    <edge id=":1317844572_4" function="internal">
        <lane id=":1317844572_4_0" index="0" allow="pedestrian bicycle" speed="2.78" length="7.00" width="2.00" shape="1756.19,1376.50 1759.09,1370.13"/>
    </edge>
    <edge id=":1317844572_5" function="internal">
        <lane id=":1317844572_5_0" index="0" allow="pedestrian bicycle" speed="2.78" length="5.80" width="2.00" shape="1756.19,1376.50 1757.14,1374.79 1758.16,1373.70 1759.25,1373.23 1760.40,1373.39"/>
    </edge>
    <edge id=":1317844572_6" function="internal">
        <lane id=":1317844572_6_0" index="0" allow="pedestrian bicycle" speed="2.78" length="7.00" width="2.00" shape="1756.19,1376.50 1759.09,1370.13"/>
    </edge>
    <edge id=":1317844572_7" function="internal">
        <lane id=":1317844572_7_0" index="0" allow="pedestrian bicycle" speed="2.78" length="5.80" width="2.00" shape="1756.19,1376.50 1757.14,1374.79 1758.16,1373.70 1759.25,1373.23 1760.40,1373.39"/>
    </edge>
    <edge id=":1317844572_w0" function="walkingarea">
        <lane id=":1317844572_w0_0" index="0" allow="pedestrian" speed="1.00" length="4.70" width="2.00" shape="1759.29,1376.17 1760.03,1374.31 1760.03,1374.32 1760.77,1372.47 1760.00,1370.54 1758.18,1369.72 1755.67,1371.46 1754.90,1373.31 1755.28,1376.09 1757.10,1376.92 1755.28,1376.09 1757.10,1376.92 1758.80,1376.02 1758.35,1375.98 1757.96,1376.05 1757.62,1376.23 1757.33,1376.52"/>
    </edge>
    <edge id=":1317844574_0" function="internal">
        <lane id=":1317844574_0_0" index="0" allow="pedestrian bicycle" speed="2.78" length="4.04" width="2.00" shape="1769.47,1367.21 1768.41,1366.89 1767.51,1366.99 1766.76,1367.51 1766.18,1368.46"/>
    </edge>
    <edge id=":1317844574_1" function="internal">
        <lane id=":1317844574_1_0" index="0" allow="pedestrian bicycle" speed="2.78" length="5.24" width="2.00" shape="1769.47,1367.21 1768.15,1366.42 1767.37,1365.68 1766.59,1364.94 1765.27,1364.14"/>
    </edge>
    <edge id=":1317844574_2" function="internal">
        <lane id=":1317844574_2_0" index="0" allow="pedestrian bicycle" speed="2.78" length="5.76" width="2.00" shape="1769.47,1367.21 1768.59,1366.49 1768.19,1365.39 1768.29,1363.90 1768.87,1362.03"/>
    </edge>
    <edge id=":1317844574_3" function="internal">
        <lane id=":1317844574_3_0" index="0" allow="pedestrian bicycle" speed="2.78" length="2.91" width="2.00" shape="1769.47,1367.21 1769.00,1366.44 1768.99,1365.88 1769.42,1365.54 1770.31,1365.40"/>
    </edge>
    <edge id=":1317844574_w0" function="walkingarea">
        <lane id=":1317844574_w0_0" index="0" allow="pedestrian" speed="1.00" length="4.55" width="2.00" shape="1769.05,1368.11 1769.90,1366.30 1769.89,1366.30 1770.73,1364.49 1769.80,1362.41 1767.95,1361.66 1765.69,1363.24 1764.84,1365.05 1765.26,1368.06 1767.10,1368.86 1768.62,1367.96 1768.23,1367.92 1767.88,1367.98 1767.58,1368.16 1767.32,1368.46"/>
    </edge>
    <edge id=":1317844575_0" function="internal">
        <lane id=":1317844575_0_0" index="0" allow="pedestrian bicycle" speed="2.78" length="4.03" width="2.00" shape="1759.73,1361.55 1758.67,1361.23 1757.77,1361.33 1757.01,1361.83 1756.40,1362.75"/>
    </edge>
    <edge id=":1317844575_1" function="internal">
        <lane id=":1317844575_1_0" index="0" allow="pedestrian bicycle" speed="2.78" length="4.98" width="2.00" shape="1758.50,1358.23 1756.40,1362.75"/>
    </edge>
    <edge id=":1317844575_w0" function="walkingarea">
        <lane id=":1317844575_w0_0" index="0" allow="pedestrian" speed="1.00" length="4.02" width="2.00" shape="1759.31,1362.46 1760.15,1360.65 1759.41,1358.65 1757.59,1357.82 1755.50,1362.32 1757.30,1363.18 1758.87,1362.30 1758.48,1362.26 1758.13,1362.32 1757.81,1362.50 1757.54,1362.78"/>
    </edge>
    <edge id=":1317844576_0" function="internal">
        <lane id=":1317844576_0_0" index="0" allow="pedestrian bicycle" speed="2.78" length="4.19" width="2.00" shape="1767.23,1377.34 1768.33,1377.65 1769.27,1377.54 1770.07,1377.01 1770.72,1376.07"/>
    </edge>
    <edge id=":1317844576_1" function="internal">
        <lane id=":1317844576_1_0" index="0" allow="pedestrian bicycle" speed="2.78" length="5.12" width="2.00" shape="1767.23,1377.34 1771.94,1379.37"/>
    </edge>
    <edge id=":1317844576_2" function="internal">
        <lane id=":1317844576_2_0" index="0" allow="pedestrian bicycle" speed="2.78" length="5.12" width="2.00" shape="1768.42,1380.65 1770.72,1376.07"/>
    </edge>
    <edge id=":1317844576_3" function="internal">
        <lane id=":1317844576_3_0" index="0" allow="pedestrian bicycle" speed="2.78" length="4.21" width="2.00" shape="1768.42,1380.65 1769.07,1379.72 1769.88,1379.19 1770.83,1379.07 1771.94,1379.37"/>
    </edge>
    <edge id=":1317844576_w0" function="walkingarea">
        <lane id=":1317844576_w0_0" index="0" allow="pedestrian" speed="1.00" length="4.12" width="2.00" shape="1771.55,1380.29 1772.33,1378.44 1771.62,1376.52 1769.83,1375.62 1767.63,1376.43 1766.83,1378.26 1767.53,1380.20 1769.32,1381.10 1771.07,1380.13 1770.63,1380.10 1770.24,1380.17 1769.89,1380.37 1769.58,1380.68"/>
    </edge>
    <edge id=":1317844581_0" function="internal">
        <lane id=":1317844581_0_0" index="0" allow="pedestrian bicycle" speed="2.78" length="5.03" width="2.00" shape="1764.69,1363.88 1760.14,1361.74"/>
    </edge>
    <edge id=":1317844581_1" function="internal">
        <lane id=":1317844581_1_0" index="0" allow="pedestrian bicycle" speed="2.78" length="4.08" width="2.00" shape="1764.69,1363.88 1763.76,1363.27 1763.24,1362.50 1763.13,1361.58 1763.44,1360.50"/>
    </edge>
    <edge id=":1317844581_2" function="internal">
        <lane id=":1317844581_2_0" index="0" allow="pedestrian bicycle" speed="2.78" length="4.07" width="2.00" shape="1761.38,1365.10 1761.69,1364.03 1761.59,1363.11 1761.07,1362.35 1760.14,1361.74"/>
    </edge>
    <edge id=":1317844581_3" function="internal">
        <lane id=":1317844581_3_0" index="0" allow="pedestrian bicycle" speed="2.78" length="5.03" width="2.00" shape="1761.38,1365.10 1763.44,1360.50"/>
    </edge>
    <edge id=":1317844581_w0" function="walkingarea">
        <lane id=":1317844581_w0_0" index="0" allow="pedestrian" speed="1.00" length="4.05" width="2.00" shape="1764.27,1364.78 1765.12,1362.97 1764.35,1360.91 1762.52,1360.10 1760.56,1360.84 1759.71,1362.65 1760.47,1364.68 1762.29,1365.51 1763.84,1364.63 1763.45,1364.58 1763.10,1364.65 1762.79,1364.82 1762.52,1365.11"/>
    </edge>
    <edge id=":1317844584_0" function="internal">
        <lane id=":1317844584_0_0" index="0" allow="pedestrian bicycle" speed="2.78" length="6.49" width="2.00" shape="1758.74,1388.16 1760.93,1388.94 1762.65,1389.19 1763.90,1388.90 1764.69,1388.08"/>
    </edge>
    <edge id=":1317844584_1" function="internal">
        <lane id=":1317844584_1_0" index="0" allow="pedestrian bicycle" speed="2.78" length="5.92" width="2.00" shape="1758.74,1388.16 1760.53,1389.11 1761.06,1389.88 1760.33,1390.45 1758.33,1390.83"/>
    </edge>
    <edge id=":1317844584_w0" function="walkingarea">
        <lane id=":1317844584_w0_0" index="0" allow="pedestrian" speed="1.00" length="5.19" width="2.00" shape="1765.58,1388.53 1763.79,1387.63 1759.13,1387.24 1758.34,1389.08 1758.23,1389.84 1758.44,1391.82 1765.01,1389.36 1764.19,1390.08 1763.12,1390.69 1761.81,1391.18 1760.25,1391.56"/>
    </edge>
    <edge id=":1317844590_0" function="internal">
        <lane id=":1317844590_0_0" index="0" allow="pedestrian bicycle" speed="2.78" length="4.04" width="2.00" shape="1761.30,1379.92 1761.02,1380.99 1761.16,1381.89 1761.70,1382.63 1762.64,1383.19"/>
    </edge>
    <edge id=":1317844590_1" function="internal">
        <lane id=":1317844590_1_0" index="0" allow="pedestrian bicycle" speed="2.78" length="4.03" width="2.00" shape="1761.30,1379.92 1760.73,1380.87 1760.00,1381.41 1759.10,1381.54 1758.03,1381.26"/>
    </edge>
    <edge id=":1317844590_2" function="internal">
        <lane id=":1317844590_2_0" index="0" allow="pedestrian bicycle" speed="2.78" length="4.03" width="2.00" shape="1761.30,1379.92 1760.73,1380.87 1760.00,1381.41 1759.10,1381.54 1758.03,1381.26"/>
    </edge>
    <edge id=":1317844590_3" function="internal">
        <lane id=":1317844590_3_0" index="0" allow="pedestrian bicycle" speed="2.78" length="4.04" width="2.00" shape="1761.30,1379.92 1761.02,1380.99 1761.16,1381.89 1761.70,1382.63 1762.64,1383.19"/>
    </edge>
    <edge id=":1317844590_4" function="internal">
        <lane id=":1317844590_4_0" index="0" allow="pedestrian bicycle" speed="2.78" length="4.03" width="2.00" shape="1761.30,1379.92 1760.73,1380.87 1760.00,1381.41 1759.10,1381.54 1758.03,1381.26"/>
    </edge>
    <edge id=":1317844590_5" function="internal">
        <lane id=":1317844590_5_0" index="0" allow="pedestrian bicycle" speed="2.78" length="4.03" width="2.00" shape="1761.30,1379.92 1760.73,1380.87 1760.00,1381.41 1759.10,1381.54 1758.03,1381.26"/>
    </edge>
    <edge id=":1317844590_w0" function="walkingarea">
        <lane id=":1317844590_w0_0" index="0" allow="pedestrian" speed="1.00" length="3.90" width="2.00" shape="1762.26,1384.12 1763.03,1382.27 1762.22,1380.30 1760.37,1379.53 1762.22,1380.30 1760.37,1379.53 1758.42,1380.34 1757.64,1382.18 1758.42,1380.34 1757.64,1382.18"/>
    </edge>
    <edge id=":1317844595_0" function="internal">
        <lane id=":1317844595_0_0" index="0" allow="pedestrian bicycle" speed="2.78" length="4.06" width="2.00" shape="1786.50,1343.09 1786.14,1344.15 1786.22,1345.06 1786.74,1345.80 1787.69,1346.40"/>
    </edge>
    <edge id=":1317844595_1" function="internal">
        <lane id=":1317844595_1_0" index="0" allow="pedestrian bicycle" speed="2.78" length="5.11" width="2.00" shape="1786.50,1343.09 1784.20,1347.65"/>
    </edge>
    <edge id=":1317844595_2" function="internal">
        <lane id=":1317844595_2_0" index="0" allow="pedestrian bicycle" speed="2.78" length="5.11" width="2.00" shape="1783.01,1344.34 1787.69,1346.40"/>
    </edge>
    <edge id=":1317844595_3" function="internal">
        <lane id=":1317844595_3_0" index="0" allow="pedestrian bicycle" speed="2.78" length="4.06" width="2.00" shape="1783.01,1344.34 1783.96,1344.93 1784.48,1345.68 1784.56,1346.59 1784.20,1347.65"/>
    </edge>
    <edge id=":1317844595_w0" function="walkingarea">
        <lane id=":1317844595_w0_0" index="0" allow="pedestrian" speed="1.00" length="4.11" width="2.00" shape="1787.29,1347.31 1788.09,1345.48 1787.39,1343.54 1785.60,1342.64 1783.42,1343.43 1782.61,1345.26 1783.31,1347.20 1785.10,1348.10 1786.82,1347.15 1786.39,1347.11 1786.00,1347.19 1785.66,1347.38 1785.36,1347.68"/>
    </edge>
    <edge id=":1317844613_0" function="internal">
        <lane id=":1317844613_0_0" index="0" allow="pedestrian bicycle" speed="2.78" length="4.08" width="2.00" shape="1749.86,1384.32 1750.93,1384.61 1751.85,1384.50 1752.61,1383.97 1753.21,1383.03"/>
    </edge>
    <edge id=":1317844613_1" function="internal">
        <lane id=":1317844613_1_0" index="0" allow="pedestrian bicycle" speed="2.78" length="5.04" width="2.00" shape="1749.86,1384.32 1754.48,1386.32"/>
    </edge>
    <edge id=":1317844613_2" function="internal">
        <lane id=":1317844613_2_0" index="0" allow="pedestrian bicycle" speed="2.78" length="5.04" width="2.00" shape="1751.12,1387.61 1753.21,1383.03"/>
    </edge>
    <edge id=":1317844613_3" function="internal">
        <lane id=":1317844613_3_0" index="0" allow="pedestrian bicycle" speed="2.78" length="4.08" width="2.00" shape="1751.12,1387.61 1751.73,1386.67 1752.49,1386.14 1753.41,1386.03 1754.48,1386.32"/>
    </edge>
    <edge id=":1317844613_w0" function="walkingarea">
        <lane id=":1317844613_w0_0" index="0" allow="pedestrian" speed="1.00" length="4.05" width="2.00" shape="1754.09,1387.24 1754.88,1385.40 1754.12,1383.44 1752.30,1382.61 1750.26,1383.40 1749.46,1385.24 1750.21,1387.20 1752.03,1388.03 1753.64,1387.09 1753.23,1387.05 1752.87,1387.13 1752.55,1387.32 1752.27,1387.62"/>
    </edge>
    <edge id=":1317844619_w0" function="walkingarea">
        <lane id=":1317844619_w0_0" index="0" allow="pedestrian" speed="1.00" length="0.27" width="2.00" shape="1743.21,1406.70 1742.31,1404.91 1742.06,1405.04 1742.98,1406.82"/>
    </edge>
    <edge id=":1317844622_0" function="internal">
        <lane id=":1317844622_0_0" index="0" allow="pedestrian bicycle" speed="2.78" length="4.05" width="2.00" shape="1747.88,1380.70 1747.55,1381.76 1747.64,1382.67 1748.17,1383.41 1749.12,1384.00"/>
    </edge>
    <edge id=":1317844622_1" function="internal">
        <lane id=":1317844622_1_0" index="0" allow="pedestrian bicycle" speed="2.78" length="5.00" width="2.00" shape="1747.88,1380.70 1745.73,1385.22"/>
    </edge>
    <edge id=":1317844622_w0" function="walkingarea">
        <lane id=":1317844622_w0_0" index="0" allow="pedestrian" speed="1.00" length="4.04" width="2.00" shape="1748.72,1384.92 1749.51,1383.08 1748.78,1381.13 1746.97,1380.27 1744.83,1384.79 1746.63,1385.65 1748.26,1384.76 1747.85,1384.72 1747.48,1384.79 1747.15,1384.96 1746.87,1385.25"/>
    </edge>
    <edge id=":1317844623_w0" function="walkingarea">
        <lane id=":1317844623_w0_0" index="0" allow="pedestrian" speed="1.00" length="0.10" width="2.00" shape="1743.76,1406.17 1741.94,1405.35 1742.40,1404.87 1743.30,1406.65 1743.70,1406.31 1743.64,1406.40 1743.59,1406.47 1743.52,1406.53 1743.43,1406.59"/>
    </edge>
    <edge id=":1317844624_0" function="internal">
        <lane id=":1317844624_0_0" index="0" allow="pedestrian bicycle" speed="2.78" length="5.19" width="2.00" shape="1788.52,1336.90 1788.69,1337.51 1788.51,1338.53 1788.01,1339.95 1787.16,1341.77"/>
    </edge>
    <edge id=":1317844624_1" function="internal">
        <lane id=":1317844624_1_0" index="0" allow="pedestrian bicycle" speed="2.78" length="3.60" width="2.00" shape="1788.52,1336.90 1789.02,1337.88 1788.99,1338.57 1788.42,1338.96 1787.32,1339.05"/>
    </edge>
    <edge id=":1317844624_w0" function="walkingarea">
        <lane id=":1317844624_w0_0" index="0" allow="pedestrian" speed="1.00" length="3.42" width="2.00" shape="1789.30,1336.27 1787.74,1337.52 1787.83,1338.19 1786.81,1339.91 1786.27,1341.33 1788.05,1342.22 1789.56,1336.81 1789.64,1337.53 1789.52,1338.43 1789.22,1339.51 1788.73,1340.78"/>
    </edge>
    <edge id=":1317844627_0" function="internal">
        <lane id=":1317844627_0_0" index="0" allow="pedestrian bicycle" speed="2.78" length="4.07" width="2.00" shape="1742.47,1392.08 1742.13,1393.16 1742.24,1394.06 1742.78,1394.79 1743.77,1395.34"/>
    </edge>
    <edge id=":1317844627_1" function="internal">
        <lane id=":1317844627_1_0" index="0" allow="pedestrian bicycle" speed="2.78" length="5.01" width="2.00" shape="1742.47,1392.08 1740.32,1396.60"/>
    </edge>
    <edge id=":1317844627_w0" function="walkingarea">
        <lane id=":1317844627_w0_0" index="0" allow="pedestrian" speed="1.00" length="4.06" width="2.00" shape="1743.41,1396.27 1744.13,1394.40 1743.37,1392.51 1741.56,1391.65 1739.42,1396.17 1741.22,1397.03 1742.92,1396.13 1742.48,1396.09 1742.09,1396.16 1741.75,1396.34 1741.46,1396.63"/>
    </edge>
    <edge id=":1317844631_0" function="internal">
        <lane id=":1317844631_0_0" index="0" allow="pedestrian bicycle" speed="2.78" length="4.85" width="2.00" shape="1764.49,1372.37 1764.03,1373.82 1764.03,1375.00 1764.49,1375.91 1765.42,1376.55"/>
    </edge>
    <edge id=":1317844631_1" function="internal">
        <lane id=":1317844631_1_0" index="0" allow="pedestrian bicycle" speed="2.78" length="6.96" width="2.00" shape="1764.49,1372.37 1761.77,1378.78"/>
    </edge>
    <edge id=":1317844631_2" function="internal">
        <lane id=":1317844631_2_0" index="0" allow="pedestrian bicycle" speed="2.78" length="6.96" width="2.00" shape="1764.49,1372.37 1761.77,1378.78"/>
    </edge>
    <edge id=":1317844631_3" function="internal">
        <lane id=":1317844631_3_0" index="0" allow="pedestrian bicycle" speed="2.78" length="5.74" width="2.00" shape="1764.49,1372.37 1763.57,1374.09 1762.58,1375.20 1761.52,1375.68 1760.39,1375.53"/>
    </edge>
    <edge id=":1317844631_4" function="internal">
        <lane id=":1317844631_4_0" index="0" allow="pedestrian bicycle" speed="2.78" length="5.20" width="2.00" shape="1761.12,1373.68 1762.47,1374.39 1763.28,1375.09 1764.09,1375.80 1765.42,1376.55"/>
    </edge>
    <edge id=":1317844631_5" function="internal">
        <lane id=":1317844631_5_0" index="0" allow="pedestrian bicycle" speed="2.78" length="5.75" width="2.00" shape="1761.12,1373.68 1762.05,1374.36 1762.47,1375.43 1762.37,1376.90 1761.77,1378.78"/>
    </edge>
    <edge id=":1317844631_6" function="internal">
        <lane id=":1317844631_6_0" index="0" allow="pedestrian bicycle" speed="2.78" length="5.75" width="2.00" shape="1761.12,1373.68 1762.05,1374.36 1762.47,1375.43 1762.37,1376.90 1761.77,1378.78"/>
    </edge>
    <edge id=":1317844631_7" function="internal">
        <lane id=":1317844631_7_0" index="0" allow="pedestrian bicycle" speed="2.78" length="2.90" width="2.00" shape="1761.12,1373.68 1761.63,1374.42 1761.68,1374.97 1761.27,1375.34 1760.39,1375.53"/>
    </edge>
    <edge id=":1317844631_w0" function="walkingarea">
        <lane id=":1317844631_w0_0" index="0" allow="pedestrian" speed="1.00" length="4.66" width="2.00" shape="1765.02,1377.47 1765.82,1375.64 1765.40,1372.76 1763.57,1371.97 1761.49,1372.75 1760.75,1374.61 1760.76,1374.60 1760.02,1376.46 1760.84,1378.40 1762.69,1379.16 1760.84,1378.40 1762.69,1379.16 1764.57,1377.35 1764.15,1377.39 1763.75,1377.59 1763.37,1377.95 1763.02,1378.48"/>
    </edge>
    <edge id=":1317844633_0" function="internal">
        <lane id=":1317844633_0_0" index="0" allow="pedestrian bicycle" speed="2.78" length="4.05" width="2.00" shape="1756.99,1380.83 1756.04,1380.26 1755.51,1379.52 1755.40,1378.62 1755.71,1377.55"/>
    </edge>
    <edge id=":1317844633_1" function="internal">
        <lane id=":1317844633_1_0" index="0" allow="pedestrian bicycle" speed="2.78" length="4.05" width="2.00" shape="1756.99,1380.83 1756.04,1380.26 1755.51,1379.52 1755.40,1378.62 1755.71,1377.55"/>
    </edge>
    <edge id=":1317844633_2" function="internal">
        <lane id=":1317844633_2_0" index="0" allow="pedestrian bicycle" speed="2.78" length="4.05" width="2.00" shape="1756.99,1380.83 1756.04,1380.26 1755.51,1379.52 1755.40,1378.62 1755.71,1377.55"/>
    </edge>
    <edge id=":1317844633_3" function="internal">
        <lane id=":1317844633_3_0" index="0" allow="pedestrian bicycle" speed="2.78" length="4.05" width="2.00" shape="1756.99,1380.83 1756.04,1380.26 1755.51,1379.52 1755.40,1378.62 1755.71,1377.55"/>
    </edge>
    <edge id=":1317844633_4" function="internal">
        <lane id=":1317844633_4_0" index="0" allow="pedestrian bicycle" speed="2.78" length="5.00" width="2.00" shape="1753.64,1382.10 1755.71,1377.55"/>
    </edge>