<additional>
    <vType id="standardCar" maxSpeed="27" />
</additional>