<?xml version="1.0" encoding="UTF-8"?>

<!-- generated on 01/13/20 10:04:32 by Eclipse SUMO netedit Version 1.3.1
<configuration xmlns:xsi="http://www.w3.org/2001/XMLSchema-instance" xsi:noNamespaceSchemaLocation="http://sumo.dlr.de/xsd/netconvertConfiguration.xsd">

    <input>
        <sumo-net-file value="C:\Users\clink\Desktop\PPS\traci4matlab_SN\SUMO\osm.net.xml"/>
    </input>

    <output>
        <output-file value="C:\Users\clink\Desktop\PPS\traci4matlab_SN\SUMO\osm.net.xml"/>
        <output.street-names value="true"/>
    </output>

    <processing>
        <geometry.max-grade.fix value="false"/>
        <offset.disable-normalization value="true"/>
        <opposites.guess.fix-lengths value="true"/>
        <lefthand value="false"/>
    </processing>

    <junctions>
        <no-internal-links value="false"/>
        <no-turnarounds value="true"/>
        <junctions.corner-detail value="5"/>
        <junctions.limit-turn-speed value="5.5"/>
        <rectangular-lane-cut value="false"/>
    </junctions>

    <pedestrian>
        <walkingareas value="false"/>
    </pedestrian>

</configuration>
-->

<net version="1.3" junctionCornerDetail="5" limitTurnSpeed="5.50" xmlns:xsi="http://www.w3.org/2001/XMLSchema-instance" xsi:noNamespaceSchemaLocation="http://sumo.dlr.de/xsd/net_file.xsd">

    <location netOffset="-478438.03,-5731420.75" convBoundary="523.01,579.13,2207.92,1885.12" origBoundary="8.673358,51.708973,8.737722,51.761864" projParameter="+proj=utm +zone=32 +ellps=WGS84 +datum=WGS84 +units=m +no_defs"/>

    <type id="highway.bridleway" priority="1" numLanes="1" speed="2.78" allow="pedestrian" oneway="1" width="2.00"/>
    <type id="highway.bus_guideway" priority="1" numLanes="1" speed="27.78" allow="bus" oneway="1"/>
    <type id="highway.cycleway" priority="1" numLanes="1" speed="8.33" allow="bicycle" oneway="0" width="1.00"/>
    <type id="highway.footway" priority="1" numLanes="1" speed="2.78" allow="pedestrian" oneway="1" width="2.00"/>
    <type id="highway.ford" priority="1" numLanes="1" speed="2.78" allow="army" oneway="0"/>
    <type id="highway.living_street" priority="3" numLanes="1" speed="2.78" disallow="bus tram rail_urban rail rail_electric ship" oneway="0"/>
    <type id="highway.motorway" priority="13" numLanes="2" speed="44.44" allow="private emergency authority army vip passenger hov taxi bus coach delivery truck trailer motorcycle evehicle custom1 custom2" oneway="1"/>
    <type id="highway.motorway_link" priority="12" numLanes="1" speed="22.22" allow="private emergency authority army vip passenger hov taxi bus coach delivery truck trailer motorcycle evehicle custom1 custom2" oneway="1"/>
    <type id="highway.path" priority="1" numLanes="1" speed="2.78" allow="pedestrian bicycle" oneway="1" width="2.00"/>
    <type id="highway.pedestrian" priority="1" numLanes="1" speed="2.78" allow="pedestrian" oneway="1" width="2.00"/>
    <type id="highway.primary" priority="9" numLanes="2" speed="27.78" disallow="tram rail_urban rail rail_electric ship" oneway="0"/>
    <type id="highway.primary_link" priority="8" numLanes="1" speed="22.22" disallow="tram rail_urban rail rail_electric ship" oneway="0"/>
    <type id="highway.raceway" priority="14" numLanes="2" speed="83.33" allow="vip" oneway="0"/>
    <type id="highway.residential" priority="4" numLanes="1" speed="13.89" disallow="tram rail_urban rail rail_electric ship" oneway="0"/>
    <type id="highway.secondary" priority="7" numLanes="2" speed="27.78" disallow="tram rail_urban rail rail_electric ship" oneway="0"/>
    <type id="highway.secondary_link" priority="6" numLanes="1" speed="22.22" disallow="tram rail_urban rail rail_electric ship" oneway="0"/>
    <type id="highway.service" priority="2" numLanes="1" speed="5.56" allow="pedestrian delivery bicycle" oneway="0"/>
    <type id="highway.stairs" priority="1" numLanes="1" speed="1.39" allow="pedestrian" oneway="1" width="2.00"/>
    <type id="highway.step" priority="1" numLanes="1" speed="1.39" allow="pedestrian" oneway="1" width="2.00"/>
    <type id="highway.steps" priority="1" numLanes="1" speed="1.39" allow="pedestrian" oneway="1" width="2.00"/>
    <type id="highway.tertiary" priority="6" numLanes="1" speed="22.22" disallow="tram rail_urban rail rail_electric ship" oneway="0"/>
    <type id="highway.tertiary_link" priority="5" numLanes="1" speed="22.22" disallow="tram rail_urban rail rail_electric ship" oneway="0"/>
    <type id="highway.track" priority="1" numLanes="1" speed="5.56" disallow="tram rail_urban rail rail_electric ship" oneway="0"/>
    <type id="highway.trunk" priority="11" numLanes="2" speed="27.78" disallow="pedestrian bicycle tram rail_urban rail rail_electric ship" oneway="0"/>
    <type id="highway.trunk_link" priority="10" numLanes="1" speed="22.22" disallow="pedestrian bicycle tram rail_urban rail rail_electric ship" oneway="0"/>
    <type id="highway.unclassified" priority="5" numLanes="1" speed="13.89" disallow="tram rail_urban rail rail_electric ship" oneway="0"/>
    <type id="highway.unsurfaced" priority="1" numLanes="1" speed="8.33" disallow="tram rail_urban rail rail_electric ship" oneway="0"/>
    <type id="railway.light_rail" priority="15" numLanes="1" speed="27.78" allow="rail_urban" oneway="1"/>
    <type id="railway.preserved" priority="15" numLanes="1" speed="27.78" allow="rail" oneway="1"/>
    <type id="railway.rail" priority="15" numLanes="1" speed="83.33" allow="rail rail_electric" oneway="1"/>
    <type id="railway.subway" priority="15" numLanes="1" speed="27.78" allow="rail_urban" oneway="1"/>
    <type id="railway.tram" priority="15" numLanes="1" speed="13.89" allow="tram" oneway="1"/>

    <edge id=":132684220_0" function="internal">
        <lane id=":132684220_0_0" index="0" disallow="pedestrian tram rail_urban rail rail_electric rail_fast ship" speed="8.71" length="9.33" shape="1964.69,979.71 1962.40,979.58 1960.23,980.03 1958.18,981.08 1956.25,982.71"/>
    </edge>
    <edge id=":132684220_1" function="internal">
        <lane id=":132684220_1_0" index="0" disallow="pedestrian tram rail_urban rail rail_electric rail_fast ship" speed="8.72" length="8.54" shape="1959.62,970.45 1961.05,972.94 1962.47,974.78 1963.87,975.99 1965.26,976.56"/>
    </edge>
    <edge id=":132684220_2" function="internal">
        <lane id=":132684220_2_0" index="0" disallow="pedestrian tram rail_urban rail rail_electric rail_fast ship" speed="8.98" length="13.62" shape="1959.62,970.45 1960.52,973.37 1960.25,976.39 1958.83,979.50 1956.25,982.71"/>
    </edge>
    <edge id=":1326976626_0" function="internal">
        <lane id=":1326976626_0_0" index="0" disallow="pedestrian tram rail_urban rail rail_electric rail_fast ship" speed="6.50" length="9.03" shape="1791.97,1182.97 1789.95,1181.55 1787.95,1181.12 1785.99,1181.68 1784.06,1183.23"/>
    </edge>
    <edge id=":1326976626_1" function="internal">
        <lane id=":1326976626_1_0" index="0" disallow="pedestrian tram rail_urban rail rail_electric rail_fast ship" speed="8.34" length="16.86" shape="1791.97,1182.97 1788.52,1178.98 1786.88,1175.20 1787.07,1171.64 1789.07,1168.30"/>
    </edge>
    <edge id=":1326976626_2" function="internal">
        <lane id=":1326976626_2_0" index="0" disallow="pedestrian tram rail_urban rail rail_electric rail_fast ship" speed="7.40" length="11.81" shape="1791.45,1170.44 1790.22,1172.63 1790.26,1175.06 1791.58,1177.73 1794.16,1180.64"/>
    </edge>
    <edge id=":1326976626_3" function="internal">
        <lane id=":1326976626_3_0" index="0" disallow="pedestrian tram rail_urban rail rail_electric rail_fast ship" speed="13.89" length="14.39" shape="1791.45,1170.44 1781.72,1181.05"/>
    </edge>
    <edge id=":1326976626_4" function="internal">
        <lane id=":1326976626_4_0" index="0" disallow="pedestrian tram rail_urban rail rail_electric rail_fast ship" speed="13.89" length="14.32" shape="1779.39,1178.86 1789.07,1168.30"/>
    </edge>
    <edge id=":1326976626_5" function="internal">
        <lane id=":1326976626_5_0" index="0" disallow="pedestrian tram rail_urban rail rail_electric rail_fast ship" speed="8.34" length="5.20" shape="1779.39,1178.86 1782.57,1176.55 1783.84,1176.38"/>
    </edge>
    <edge id=":1326976626_6" function="internal">
        <lane id=":1326976626_6_0" index="0" disallow="pedestrian tram rail_urban rail rail_electric rail_fast ship" speed="8.34" length="11.66" shape="1783.84,1176.38 1786.09,1176.08 1789.96,1177.44 1794.16,1180.64"/>
    </edge>
    <edge id=":1326976626_w0" function="walkingarea">
        <lane id=":1326976626_w0_0" index="0" allow="pedestrian" speed="1.00" length="14.28" width="2.00" shape="1787.88,1167.23 1786.40,1165.89 1776.76,1176.41 1778.22,1177.77"/>
    </edge>
    <edge id=":1835360308_0" function="internal">
        <lane id=":1835360308_0_0" index="0" disallow="pedestrian tram rail_urban rail rail_electric rail_fast ship" speed="6.47" length="9.03" shape="1809.38,1157.53 1807.21,1156.32 1805.19,1156.11 1803.30,1156.89 1801.57,1158.66"/>
    </edge>
    <edge id=":1835360308_1" function="internal">
        <lane id=":1835360308_1_0" index="0" disallow="pedestrian tram rail_urban rail rail_electric rail_fast ship" speed="8.09" length="14.20" shape="1809.38,1157.53 1806.63,1154.76 1805.39,1151.78 1805.65,1148.57 1807.42,1145.15"/>
    </edge>
    <edge id=":1835360308_2" function="internal">
        <lane id=":1835360308_2_0" index="0" disallow="pedestrian tram rail_urban rail rail_electric rail_fast ship" speed="6.61" length="9.13" shape="1810.02,1147.02 1808.89,1149.21 1808.73,1151.27 1809.54,1153.19 1811.31,1154.98"/>
    </edge>
    <edge id=":1835360308_3" function="internal">
        <lane id=":1835360308_3_0" index="0" disallow="pedestrian tram rail_urban rail rail_electric rail_fast ship" speed="13.89" length="14.39" shape="1810.02,1147.02 1801.57,1158.66"/>
    </edge>
    <edge id=":1835360308_4" function="internal">
        <lane id=":1835360308_4_0" index="0" disallow="pedestrian tram rail_urban rail rail_electric rail_fast ship" speed="13.89" length="14.35" shape="1798.99,1156.76 1807.42,1145.15"/>
    </edge>
    <edge id=":1835360308_5" function="internal">
        <lane id=":1835360308_5_0" index="0" disallow="pedestrian tram rail_urban rail rail_electric rail_fast ship" speed="7.97" length="5.87" shape="1798.99,1156.76 1801.73,1153.97 1803.54,1153.22"/>
    </edge>
    <edge id=":1835360308_6" function="internal">
        <lane id=":1835360308_6_0" index="0" disallow="pedestrian tram rail_urban rail rail_electric rail_fast ship" speed="7.97" length="8.38" shape="1803.54,1153.22 1804.70,1152.74 1807.89,1153.08 1811.31,1154.98"/>
    </edge>
    <edge id=":1839490436_0" function="internal">
        <lane id=":1839490436_0_0" index="0" disallow="pedestrian tram rail_urban rail rail_electric rail_fast ship" speed="2.78" length="9.04" shape="1781.49,1032.17 1779.57,1030.55 1777.64,1029.99 1775.69,1030.49 1773.73,1032.05"/>
    </edge>
    <edge id=":1839490436_1" function="internal">
        <lane id=":1839490436_1_0" index="0" disallow="pedestrian tram rail_urban rail rail_electric rail_fast ship" speed="2.78" length="13.98" shape="1781.49,1032.17 1779.17,1029.42 1777.17,1026.67 1775.43,1023.75 1773.91,1020.50"/>
    </edge>
    <edge id=":1839490436_2" function="internal">
        <lane id=":1839490436_2_0" index="0" disallow="pedestrian tram rail_urban rail rail_electric rail_fast ship" speed="2.78" length="12.93" shape="1776.87,1019.28 1778.30,1022.38 1779.85,1024.99 1781.65,1027.44 1783.88,1030.05"/>
    </edge>
    <edge id=":1839490436_3" function="internal">
        <lane id=":1839490436_3_0" index="0" disallow="pedestrian tram rail_urban rail rail_electric rail_fast ship" speed="2.78" length="13.96" shape="1776.87,1019.28 1777.69,1022.54 1777.44,1025.75 1776.12,1028.93 1773.73,1032.05"/>
    </edge>
    <edge id=":1839490436_4" function="internal">
        <lane id=":1839490436_4_0" index="0" disallow="pedestrian tram rail_urban rail rail_electric rail_fast ship" speed="2.78" length="10.27" shape="1771.40,1029.85 1773.22,1027.51 1774.25,1025.17 1774.48,1022.83 1773.91,1020.50"/>
    </edge>
    <edge id=":1839490436_5" function="internal">
        <lane id=":1839490436_5_0" index="0" disallow="pedestrian tram rail_urban rail rail_electric rail_fast ship" speed="2.78" length="14.54" shape="1771.40,1029.85 1774.56,1027.34 1777.69,1026.54 1780.80,1027.44 1783.88,1030.05"/>
    </edge>
    <edge id=":1942504106_0" function="internal">
        <lane id=":1942504106_0_0" index="0" disallow="pedestrian tram rail_urban rail rail_electric rail_fast ship" speed="13.89" length="4.32" shape="2013.99,1627.91 2012.71,1627.83 2011.83,1627.80 2010.96,1627.88 2009.71,1628.13"/>
    </edge>
    <edge id=":1942504106_1" function="internal">
        <lane id=":1942504106_1_0" index="0" allow="pedestrian bicycle" speed="5.84" length="2.78" width="2.00" shape="2013.99,1627.91 2012.75,1627.44 2012.01,1626.20"/>
    </edge>
    <edge id=":1942504106_4" function="internal">
        <lane id=":1942504106_4_0" index="0" allow="pedestrian bicycle" speed="5.84" length="4.83" width="2.00" shape="2012.01,1626.20 2011.77,1624.18 2012.03,1621.39"/>
    </edge>
    <edge id=":1942504106_2" function="internal">
        <lane id=":1942504106_2_0" index="0" allow="pedestrian bicycle" speed="5.83" length="5.02" width="2.00" shape="2009.02,1625.00 2010.15,1624.57 2011.03,1623.83 2011.66,1622.77 2012.03,1621.39"/>
    </edge>
    <edge id=":1942504106_3" function="internal">
        <lane id=":1942504106_3_0" index="0" disallow="pedestrian tram rail_urban rail rail_electric rail_fast ship" speed="13.89" length="5.20" shape="2009.02,1625.00 2010.53,1624.70 2011.58,1624.60 2012.64,1624.62 2014.18,1624.72"/>
    </edge>
    <edge id=":206248190_0" function="internal">
        <lane id=":206248190_0_0" index="0" disallow="pedestrian tram rail_urban rail rail_electric rail_fast ship" speed="13.89" length="7.61" shape="1779.90,1277.37 1778.97,1275.49 1778.12,1274.32 1777.12,1273.25 1775.72,1271.65"/>
        <lane id=":206248190_0_1" index="1" disallow="pedestrian tram rail_urban rail rail_electric rail_fast ship" speed="13.89" length="7.61" shape="1779.90,1277.37 1779.32,1275.06 1779.40,1273.29 1779.30,1271.63 1778.21,1269.64"/>
    </edge>
    <edge id=":206248190_2" function="internal">
        <lane id=":206248190_2_0" index="0" disallow="pedestrian tram rail_urban rail rail_electric rail_fast ship" speed="13.89" length="8.88" shape="1780.65,1267.65 1781.90,1269.85 1782.11,1271.66 1782.14,1273.57 1782.84,1276.10"/>
    </edge>
    <edge id=":206248190_3" function="internal">
        <lane id=":206248190_3_0" index="0" allow="bicycle" speed="8.34" length="10.71" width="2.00" shape="1777.34,1283.23 1776.50,1280.28 1776.11,1278.04 1775.43,1275.92 1773.71,1273.29"/>
    </edge>
    <edge id=":206248190_w0" function="walkingarea">
        <lane id=":206248190_w0_0" index="0" allow="pedestrian" speed="1.00" length="7.38" width="2.00" shape="1785.52,1273.34 1786.73,1271.75 1783.46,1265.39 1781.89,1266.64 1782.94,1268.26 1783.39,1269.60 1783.49,1270.83 1783.50,1272.11 1783.69,1273.60"/>
    </edge>
    <edge id=":206248190_w1" function="walkingarea">
        <lane id=":206248190_w1_0" index="0" allow="pedestrian" speed="1.00" length="10.11" width="2.00" shape="1772.93,1273.92 1771.38,1275.18 1776.40,1283.58 1778.27,1282.88 1777.70,1276.80 1776.88,1276.14 1775.98,1275.78 1775.01,1275.46 1773.99,1274.93"/>
    </edge>
    <edge id=":206248194_0" function="internal">
        <lane id=":206248194_0_0" index="0" disallow="pedestrian tram rail_urban rail rail_electric rail_fast ship" speed="13.89" length="0.10" shape="1814.39,1372.26 1814.39,1372.26"/>
    </edge>
    <edge id=":206248194_1" function="internal">
        <lane id=":206248194_1_0" index="0" disallow="pedestrian tram rail_urban rail rail_electric rail_fast ship" speed="13.89" length="0.10" shape="1817.45,1371.32 1817.45,1371.32"/>
    </edge>
    <edge id=":2304966286_0" function="internal">
        <lane id=":2304966286_0_0" index="0" disallow="pedestrian tram rail_urban rail rail_electric rail_fast ship" speed="13.89" length="5.00" shape="1850.37,1511.56 1849.19,1506.70"/>
    </edge>
    <edge id=":2304966286_1" function="internal">
        <lane id=":2304966286_1_0" index="0" disallow="pedestrian tram rail_urban rail rail_electric rail_fast ship" speed="13.89" length="5.00" shape="1852.30,1505.94 1853.48,1510.80"/>
    </edge>
    <edge id=":2304966286_2" function="internal">
        <lane id=":2304966286_2_0" index="0" disallow="pedestrian tram rail_urban rail rail_electric rail_fast ship" speed="4.27" length="3.78" shape="1847.67,1509.62 1848.56,1509.27 1849.11,1508.67 1849.32,1507.81 1849.19,1506.70"/>
    </edge>
    <edge id=":2304966286_3" function="internal">
        <lane id=":2304966286_3_0" index="0" disallow="pedestrian tram rail_urban rail rail_electric rail_fast ship" speed="5.53" length="6.47" shape="1847.67,1509.62 1850.01,1509.28 1851.75,1509.36 1852.91,1509.87 1853.48,1510.80"/>
    </edge>
    <edge id=":246675714_0" function="internal">
        <lane id=":246675714_0_0" index="0" disallow="pedestrian tram rail_urban rail rail_electric rail_fast ship" speed="5.55" length="4.97" shape="1781.27,933.16 1780.23,938.03"/>
    </edge>
    <edge id=":246675714_1" function="internal">
        <lane id=":246675714_1_0" index="0" disallow="pedestrian tram rail_urban rail rail_electric rail_fast ship" speed="5.55" length="4.90" shape="1777.11,937.33 1778.13,932.53"/>
    </edge>
    <edge id=":246675715_0" function="internal">
        <lane id=":246675715_0_0" index="0" disallow="pedestrian tram rail_urban rail rail_electric rail_fast ship" speed="2.78" length="15.97" shape="1774.55,966.35 1772.95,982.24"/>
    </edge>
    <edge id=":246675715_1" function="internal">
        <lane id=":246675715_1_0" index="0" disallow="pedestrian tram rail_urban rail rail_electric rail_fast ship" speed="2.78" length="17.84" shape="1774.55,966.35 1773.28,971.72 1770.96,974.20 1767.58,973.81 1763.14,970.54"/>
    </edge>
    <edge id=":246675715_2" function="internal">
        <lane id=":246675715_2_0" index="0" disallow="pedestrian tram rail_urban rail rail_electric rail_fast ship" speed="2.78" length="9.42" shape="1765.34,968.22 1767.68,969.94 1769.47,970.15 1770.70,968.84 1771.36,966.00"/>
    </edge>
    <edge id=":246675715_3" function="internal">
        <lane id=":246675715_3_0" index="0" disallow="pedestrian tram rail_urban rail rail_electric rail_fast ship" speed="2.78" length="16.44" shape="1765.34,968.22 1768.87,971.99 1771.32,975.59 1772.68,979.00 1772.95,982.24"/>
    </edge>
    <edge id=":246675715_4" function="internal">
        <lane id=":246675715_4_0" index="0" disallow="pedestrian tram rail_urban rail rail_electric rail_fast ship" speed="2.78" length="13.58" shape="1769.76,981.96 1769.50,979.47 1768.31,976.73 1766.19,973.75 1763.14,970.54"/>
    </edge>
    <edge id=":246675715_5" function="internal">
        <lane id=":246675715_5_0" index="0" disallow="pedestrian tram rail_urban rail rail_electric rail_fast ship" speed="2.78" length="16.04" shape="1769.76,981.96 1771.36,966.00"/>
    </edge>
    <edge id=":251048316_0" function="internal">
        <lane id=":251048316_0_0" index="0" disallow="pedestrian tram rail_urban rail rail_electric rail_fast ship" speed="8.33" length="8.90" shape="989.51,1203.48 987.47,1201.92 985.75,1201.33 983.91,1200.90 981.51,1199.81"/>
    </edge>
    <edge id=":251048316_1" function="internal">
        <lane id=":251048316_1_0" index="0" disallow="pedestrian tram rail_urban rail rail_electric rail_fast ship" speed="8.33" length="10.55" shape="983.12,1197.11 986.09,1197.92 988.70,1197.51 991.25,1197.36 994.00,1198.92"/>
        <lane id=":251048316_1_1" index="1" disallow="pedestrian tram rail_urban rail rail_electric rail_fast ship" speed="8.33" length="10.55" shape="983.12,1197.11 985.73,1198.30 987.70,1198.81 989.55,1199.49 991.75,1201.20"/>
    </edge>
    <edge id=":251048317_0" function="internal">
        <lane id=":251048317_0_0" index="0" disallow="pedestrian tram rail_urban rail rail_electric rail_fast ship" speed="8.33" length="0.90" shape="1038.80,1257.32 1038.68,1257.08 1038.59,1256.92 1038.48,1256.77 1038.31,1256.57"/>
    </edge>
    <edge id=":251048317_1" function="internal">
        <lane id=":251048317_1_0" index="0" disallow="pedestrian tram rail_urban rail rail_electric rail_fast ship" speed="8.33" length="2.10" shape="1043.18,1252.42 1043.66,1252.99 1043.96,1253.40 1044.22,1253.84 1044.55,1254.51"/>
        <lane id=":251048317_1_1" index="1" disallow="pedestrian tram rail_urban rail rail_electric rail_fast ship" speed="8.33" length="2.10" shape="1040.75,1254.50 1041.07,1254.88 1041.28,1255.16 1041.45,1255.46 1041.67,1255.91"/>
    </edge>
    <edge id=":251048317_w0" function="walkingarea">
        <lane id=":251048317_w0_0" index="0" allow="pedestrian" speed="1.00" length="0.25" width="2.00" shape="1037.09,1257.61 1035.57,1258.90 1035.57,1258.90 1037.36,1258.02 1037.32,1257.93 1037.28,1257.86 1037.25,1257.80 1037.21,1257.75 1037.16,1257.69"/>
    </edge>
    <edge id=":251048317_w1" function="walkingarea">
        <lane id=":251048317_w1_0" index="0" allow="pedestrian" speed="1.00" length="3.14" width="2.00" shape="1045.99,1253.81 1047.78,1252.93 1045.93,1250.09 1044.40,1251.39 1044.80,1251.86 1045.09,1252.21 1045.31,1252.52 1045.50,1252.85 1045.71,1253.25"/>
    </edge>
    <edge id=":251570428_0" function="internal">
        <lane id=":251570428_0_0" index="0" disallow="pedestrian tram rail_urban rail rail_electric rail_fast ship" speed="13.89" length="14.46" shape="1825.95,1753.47 1813.09,1760.09"/>
    </edge>
    <edge id=":251570428_1" function="internal">
        <lane id=":251570428_1_0" index="0" disallow="pedestrian tram rail_urban rail rail_electric rail_fast ship" speed="8.44" length="5.53" shape="1825.95,1753.47 1822.25,1754.66 1820.62,1754.41"/>
    </edge>
    <edge id=":251570428_7" function="internal">
        <lane id=":251570428_7_0" index="0" disallow="pedestrian tram rail_urban rail rail_electric rail_fast ship" speed="8.44" length="10.25" shape="1820.62,1754.41 1818.88,1754.15 1815.84,1751.96 1813.12,1748.07"/>
    </edge>
    <edge id=":251570428_2" function="internal">
        <lane id=":251570428_2_0" index="0" allow="pedestrian" speed="6.37" length="8.56" width="2.00" shape="1815.94,1746.55 1817.28,1748.31 1818.95,1749.19 1820.94,1749.20 1823.25,1748.34"/>
    </edge>
    <edge id=":251570428_3" function="internal">
        <lane id=":251570428_3_0" index="0" disallow="pedestrian tram rail_urban rail rail_electric rail_fast ship" speed="7.05" length="10.68" shape="1815.94,1746.55 1817.82,1749.31 1819.87,1750.91 1822.08,1751.35 1824.46,1750.64"/>
    </edge>
    <edge id=":251570428_4" function="internal">
        <lane id=":251570428_4_0" index="0" disallow="pedestrian tram rail_urban rail rail_electric rail_fast ship" speed="8.34" length="15.83" shape="1815.94,1746.55 1817.68,1750.97 1817.79,1754.69 1816.26,1757.74 1813.09,1760.09"/>
    </edge>
    <edge id=":251570428_5" function="internal">
        <lane id=":251570428_5_0" index="0" disallow="pedestrian tram rail_urban rail rail_electric rail_fast ship" speed="6.92" length="10.58" shape="1811.65,1757.23 1813.63,1755.71 1814.54,1753.67 1814.37,1751.13 1813.12,1748.07"/>
    </edge>
    <edge id=":251570428_6" function="internal">
        <lane id=":251570428_6_0" index="0" disallow="pedestrian tram rail_urban rail rail_electric rail_fast ship" speed="13.89" length="14.41" shape="1811.65,1757.23 1824.46,1750.64"/>
    </edge>
    <edge id=":251570470_0" function="internal">
        <lane id=":251570470_0_0" index="0" disallow="pedestrian tram rail_urban rail rail_electric rail_fast ship" speed="13.89" length="11.24" shape="1826.42,1411.98 1823.25,1401.20"/>
    </edge>
    <edge id=":251570470_1" function="internal">
        <lane id=":251570470_1_0" index="0" disallow="pedestrian tram rail_urban rail rail_electric rail_fast ship" speed="13.89" length="11.31" shape="1826.31,1400.26 1829.50,1411.12"/>
    </edge>
    <edge id=":251570470_2" function="internal">
        <lane id=":251570470_2_0" index="0" disallow="pedestrian tram rail_urban rail rail_electric rail_fast ship" speed="5.76" length="7.15" shape="1821.85,1407.40 1823.09,1406.73 1823.73,1405.47 1823.79,1403.63 1823.25,1401.20"/>
    </edge>
    <edge id=":251570470_3" function="internal">
        <lane id=":251570470_3_0" index="0" disallow="pedestrian tram rail_urban rail rail_electric rail_fast ship" speed="6.77" length="9.61" shape="1821.85,1407.40 1824.64,1407.06 1826.85,1407.57 1828.47,1408.92 1829.50,1411.12"/>
    </edge>
    <edge id=":251814634_0" function="internal">
        <lane id=":251814634_0_0" index="0" disallow="pedestrian tram rail_urban rail rail_electric rail_fast ship" speed="13.89" length="14.38" shape="1988.31,1646.91 1977.23,1637.75"/>
    </edge>
    <edge id=":251814634_1" function="internal">
        <lane id=":251814634_1_0" index="0" disallow="pedestrian tram rail_urban rail rail_electric rail_fast ship" speed="7.81" length="5.90" shape="1988.31,1646.91 1985.59,1643.87 1985.04,1642.14"/>
    </edge>
    <edge id=":251814634_6" function="internal">
        <lane id=":251814634_6_0" index="0" disallow="pedestrian tram rail_urban rail rail_electric rail_fast ship" speed="7.81" length="8.75" shape="1985.04,1642.14 1984.62,1640.78 1985.40,1637.63 1987.93,1634.43"/>
    </edge>
    <edge id=":251814634_2" function="internal">
        <lane id=":251814634_2_0" index="0" disallow="pedestrian tram rail_urban rail rail_electric rail_fast ship" speed="6.27" length="9.04" shape="1990.13,1636.75 1988.57,1638.73 1988.08,1640.67 1988.68,1642.58 1990.36,1644.46"/>
    </edge>
    <edge id=":251814634_3" function="internal">
        <lane id=":251814634_3_0" index="0" disallow="pedestrian tram rail_urban rail rail_electric rail_fast ship" speed="8.45" length="14.37" shape="1990.13,1636.75 1986.88,1639.13 1983.64,1640.10 1980.42,1639.63 1977.23,1637.75"/>
    </edge>
    <edge id=":251814634_4" function="internal">
        <lane id=":251814634_4_0" index="0" disallow="pedestrian tram rail_urban rail rail_electric rail_fast ship" speed="7.04" length="9.68" shape="1979.25,1635.27 1981.36,1636.50 1983.51,1636.77 1985.70,1636.08 1987.93,1634.43"/>
    </edge>
    <edge id=":251814634_5" function="internal">
        <lane id=":251814634_5_0" index="0" disallow="pedestrian tram rail_urban rail rail_electric rail_fast ship" speed="13.89" length="14.42" shape="1979.25,1635.27 1990.36,1644.46"/>
    </edge>
    <edge id=":251814640_0" function="internal">
        <lane id=":251814640_0_0" index="0" disallow="pedestrian tram rail_urban rail rail_electric rail_fast ship" speed="13.89" length="14.27" shape="2087.21,1642.01 2073.51,1638.04"/>
    </edge>
    <edge id=":251814640_1" function="internal">
        <lane id=":251814640_1_0" index="0" disallow="pedestrian tram rail_urban rail rail_electric rail_fast ship" speed="8.25" length="5.65" shape="2087.21,1642.01 2083.80,1640.39 2082.54,1638.99"/>
    </edge>
    <edge id=":251814640_6" function="internal">
        <lane id=":251814640_6_0" index="0" disallow="pedestrian tram rail_urban rail rail_electric rail_fast ship" speed="8.25" length="8.58" shape="2082.54,1638.99 2081.64,1638.00 2080.73,1634.84 2081.06,1630.90"/>
    </edge>
    <edge id=":251814640_2" function="internal">
        <lane id=":251814640_2_0" index="0" disallow="pedestrian tram rail_urban rail rail_electric rail_fast ship" speed="6.81" length="9.37" shape="2084.18,1631.60 2083.95,1634.21 2084.54,1636.31 2085.94,1637.89 2088.15,1638.95"/>
    </edge>
    <edge id=":251814640_3" function="internal">
        <lane id=":251814640_3_0" index="0" disallow="pedestrian tram rail_urban rail rail_electric rail_fast ship" speed="7.91" length="14.39" shape="2084.18,1631.60 2082.78,1635.31 2080.54,1637.62 2077.44,1638.53 2073.51,1638.04"/>
    </edge>
    <edge id=":251814640_4" function="internal">
        <lane id=":251814640_4_0" index="0" disallow="pedestrian tram rail_urban rail rail_electric rail_fast ship" speed="6.40" length="9.04" shape="2074.35,1634.95 2076.83,1635.26 2078.77,1634.69 2080.18,1633.24 2081.06,1630.90"/>
    </edge>
    <edge id=":251814640_5" function="internal">
        <lane id=":251814640_5_0" index="0" disallow="pedestrian tram rail_urban rail rail_electric rail_fast ship" speed="13.89" length="14.36" shape="2074.35,1634.95 2088.15,1638.95"/>
    </edge>
    <edge id=":251814881_0" function="internal">
        <lane id=":251814881_0_0" index="0" disallow="pedestrian tram rail_urban rail rail_electric rail_fast ship" speed="13.89" length="5.58" shape="1957.35,950.31 1956.29,951.57 1955.67,952.52 1955.19,953.55 1954.55,955.08"/>
    </edge>
    <edge id=":251814881_1" function="internal">
        <lane id=":251814881_1_0" index="0" disallow="pedestrian tram rail_urban rail rail_electric rail_fast ship" speed="13.89" length="6.61" shape="1951.60,953.82 1952.37,952.01 1952.95,950.80 1953.70,949.68 1954.96,948.19"/>
    </edge>
    <edge id=":251815125_0" function="internal">
        <lane id=":251815125_0_0" index="0" disallow="pedestrian tram rail_urban rail rail_electric rail_fast ship" speed="9.71" length="10.24" shape="1944.01,984.40 1941.61,983.27 1939.17,982.73 1936.69,982.77 1934.16,983.40"/>
    </edge>
    <edge id=":251815125_1" function="internal">