<?xml version="1.0" encoding="UTF-8"?>

<!-- generated on 01/21/20 12:30:03 by Eclipse SUMO duarouter Version 1.4.0
<configuration xmlns:xsi="http://www.w3.org/2001/XMLSchema-instance" xsi:noNamespaceSchemaLocation="http://sumo.dlr.de/xsd/duarouterConfiguration.xsd">

    <input>
        <net-file value="sn_red.net.xml"/>
        <additional-files value="sn_red.add.xml"/>
        <route-files value="trips.trips.xml"/>
    </input>

    <output>
        <output-file value="sn_red_rou.xml"/>
        <alternatives-output value="sn_red_rou.alt.xml"/>
    </output>

    <time>
        <begin value="0"/>
        <end value="1000.0"/>
    </time>

    <report>
        <no-warnings value="true"/>
        <ignore-errors value="true"/>
        <no-step-log value="true"/>
    </report>

</configuration>
-->

<routes xmlns:xsi="http://www.w3.org/2001/XMLSchema-instance" xsi:noNamespaceSchemaLocation="http://sumo.dlr.de/xsd/routes_file.xsd">
    <vehicle id="0" depart="0.00">
        <route edges="323130960 323130959 351625607 323130964 136827200 301053639#0 301053639#1 31310204#0 31310204#1 323130961#0 edge_3_1 323130961#2 323130961#3 398475534#0 398475534#0.42 398475534#2 398475534#3 gneE159 gneE159.64 gneE152 337866036#1 25391547#1 25391547#2"/>
    </vehicle>
    <vehicle id="7" depart="14.00">
        <route edges="-24922964#0 37897347#0 37897347#2 37897347#3 354199320#0 edge_12_1 172307881#0 172307881#1 175566795 37897348#0 37897348#1 -359732195#0 -79577221#1 -79577221#0 -79577224 -20576446#0 -79577220 -62022984 edge_13_2 -31316108#4 32773514#1 296600368 edge_14_2"/>
    </vehicle>
    <vehicle id="9" depart="18.00">
        <route edges="398475534#0.42 398475534#2 398475534#3 gneE157 gneE105 gneE116 gneE111 gneE132 -49978384#8 edge_6_1 -49978384#5 -49978384#3 -49978384#2 -49978384#1 -49978384#0 -49978384#0.48 -354200538 -359732195#0 -79577221#1 -79577221#0 -79577224"/>
    </vehicle>
    <vehicle id="10" depart="20.00">
        <route edges="172307882#1 13995411#0 13995411#1 edge_11_1"/>
    </vehicle>
    <vehicle id="15" depart="30.00">
        <route edges="37897348#1 354200538 49978384#0 49978384#0.7 49978384#1 49978384#2 49978384#3 49978384#5 edge_6_2 49978384#8 -gneE132 gneE96 gneE106 gneE150 gneE125"/>
    </vehicle>
    <vehicle id="16" depart="32.00">
        <route edges="23294169#1.199 290395576 323130962 -136827199 -29426937 -323130963 -23515278 -23515279 351625607 323130964 136827200 301053639#0 301053639#1 31310204#0 31310204#1 323130961#0 edge_3_1 323130961#2 323130961#3 398475534#0 398475534#0.42 398475534#2 398475534#3 gneE157 gneE105 gneE116 gneE111 gneE132 -49978384#8 edge_6_1 -49978384#5 -49978384#3 -49978384#2 -49978384#1 -49978384#0 -49978384#0.48 -354200538 -37897348#1 -37897348#0 -175566795 -172307881#1 -172307881#0 edge_12_2 -354199320#0 -37897347#3"/>
    </vehicle>
    <vehicle id="19" depart="38.00">
        <route edges="31105512#4 -203063425#0"/>
    </vehicle>
    <vehicle id="21" depart="42.00">
        <route edges="323130960 323130959 351625607 323130964 136827200 301053639#0 301053639#1 31310204#0 31310204#1 323130961#0 edge_3_1 323130961#2 323130961#3 398475534#0 398475534#0.42 398475534#2 398475534#3 gneE157 gneE105 gneE116 gneE111 gneE132 -49978384#8 edge_6_1 -49978384#5 -49978384#3 -49978384#2 -49978384#1 -49978384#0 -49978384#0.48 -354200538 -359732195#0 -79577221#1 -79577221#0 -79577224 -20576446#0 -79577220 -62022984 edge_13_2 -31316108#4 32773514#1 24013466#0 24013466#2 -24013468#1 -24013468#0 203063425#0 31316108#1 31316108#1.2 31316108#2 31316108#3 31316108#4 edge_13_1 62022984 79577220 20576446#0 79577224 79577221#0 79577221#1 359732195#0"/>
    </vehicle>
    <vehicle id="22" depart="44.00">
        <route edges="323130963 29426937 -323130958 -323130955"/>
    </vehicle>
    <vehicle id="25" depart="50.00">
        <route edges="-52760167#1 -52760145 backup_11_2"/>
    </vehicle>
    <vehicle id="29" depart="58.00">
        <route edges="323130965#1 31310204#0 31310204#1 323130961#0 edge_3_1 323130961#2 323130961#3 398475534#0 398475534#0.42 398475534#2 398475534#3 gneE157 gneE105 gneE116 gneE111 gneE132 -49978384#8 edge_6_1 -49978384#5 -49978384#3 -49978384#2 -49978384#1 -49978384#0 -49978384#0.48 -354200538 -37897348#1 -37897348#0 -175566795 -172307881#1 -172307881#0 edge_12_2 -354199320#0 edge_11_2 -52760167#1 -52760145 backup_11_2 -13995411#1 -13995411#0 172307882#2 172307882#3 172307882#1 13995411#0 13995411#1 edge_11_1 52760145 52760167#1 52760167#2 354199320#0 edge_12_1 172307881#0 172307881#1 175566795 37897348#0 37897348#1 354200538 49978384#0 49978384#0.7 49978384#1 49978384#2 49978384#3 49978384#5 edge_6_2 49978384#8 -gneE132 gneE97 gneE97.53 gneE120 gneE160 -398475534#3 -398475534#2 -398475534#1 -398475534#1.10 -323130961#3 -323130961#2 edge_3_2"/>
    </vehicle>
    <vehicle id="30" depart="60.00">
        <route edges="-323130963 -23515278 -23515279 351625607 323130964 136827200 301053639#0 301053639#1 31310204#0 31310204#1 323130961#0 edge_3_1 323130961#2 323130961#3 398475534#0 398475534#0.42 398475534#2 398475534#3 gneE157 gneE105 gneE116 gneE111 gneE132 -49978384#8 edge_6_1 -49978384#5 -49978384#3 -49978384#2 -49978384#1 -49978384#0 -49978384#0.48 -354200538 -359732195#0 -79577221#1 -79577221#0 -79577224 -20576446#0 -79577220 -62022984 edge_13_2 -31316108#4 -31316108#3 -31316108#2 -31316108#1 -31105512#4 -31105512#4.31 -31105512#2 -31105512#1 -31105512#0 -gneE162 -95793135#6 -95793135#5 gneE165"/>
    </vehicle>
    <vehicle id="31" depart="62.00">
        <route edges="25726786#5 25726786#6 172307882#3 172307882#1 13995411#0 13995411#1 edge_11_1 52760145 52760167#1 52760167#2 354199320#0 edge_12_1 172307881#0 172307881#1 175566795 37897348#0 37897348#1 354200538 49978384#0 49978384#0.7 49978384#1 49978384#2 49978384#3 49978384#5 edge_6_2 49978384#8 -gneE132 gneE96 gneE106 gneE118 gneE152 337866036#1 25391547#1"/>
    </vehicle>
    <vehicle id="32" depart="64.00">
        <route edges="79577224 79577221#0 79577221#1 359732195#0 -37897348#1 -37897348#0 -175566795 -172307881#1 -172307881#0 edge_12_2 -354199320#0 -37897347#3 -37897347#2 -37897347#0 -22911947#1 -22911947#0"/>
    </vehicle>
    <vehicle id="33" depart="66.00">
        <route edges="24013466#2 -24013468#1 -24013468#0 203063425#0 31316108#1 31316108#1.2 31316108#2 31316108#3 31316108#4 edge_13_1 62022984 79577220 20576446#0 79577224 79577221#0 79577221#1 359732195#0 -37897348#1 -37897348#0 -175566795 -172307881#1 -172307881#0 edge_12_2 -354199320#0 -37897347#3 -37897347#2 -37897347#0 -22911947#1 51575849#0"/>
    </vehicle>
    <vehicle id="35" depart="70.00">
        <route edges="edge_12_1 172307881#0 172307881#1 175566795 37897348#0 37897348#1 -359732195#0 -79577221#1 -79577221#0 -79577224 -20576446#0 -79577220 -62022984 edge_13_2 -31316108#4 -31316108#3 -31316108#2 -31316108#1 -203063425#0 -23268145#0 23919029#0 23919029#1 23919029#2"/>
    </vehicle>
    <vehicle id="36" depart="72.00">
        <route edges="52775226#3 172307882#1 13995411#0 13995411#1 edge_11_1 52760145 52760167#1 52760167#2 354199320#0 edge_12_1 172307881#0 172307881#1 175566795 37897348#0 37897348#1 354200538 49978384#0 49978384#0.7 49978384#1 49978384#2 49978384#3 49978384#5"/>
    </vehicle>
    <vehicle id="38" depart="76.00">
        <route edges="31105512#0 31105512#1 31105512#2 31105512#4 31316108#1 31316108#1.2 31316108#2 31316108#3 31316108#4 edge_13_1 62022984 79577220 20576446#0 79577224 79577221#0 79577221#1 359732195#0 -37897348#1 -37897348#0 -175566795 -172307881#1 -172307881#0 edge_12_2 -354199320#0 -37897347#3 -37897347#2 -37897347#0"/>
    </vehicle>
    <vehicle id="39" depart="78.00">
        <route edges="-23515281.163 290395576 323130962 -136827199 -29426937 -323130963 -23515278 -23515279 351625607 323130964 136827200 301053639#0 301053639#1 31310204#0 31310204#1 323130961#0 edge_3_1 323130961#2 323130961#3 398475534#0 398475534#0.42 398475534#2 398475534#3 gneE157 gneE105 gneE116 gneE111 gneE132 -49978384#8 edge_6_1 -49978384#5 -49978384#3 -49978384#2 -49978384#1 -49978384#0 -49978384#0.48 -354200538 -37897348#1 -37897348#0 -175566795 -172307881#1 -172307881#0 edge_12_2 -354199320#0 edge_11_2 -52760167#1 -52760145 backup_11_2 -13995411#1 -13995411#0 172307882#2 -25726786#6"/>
    </vehicle>
    <vehicle id="40" depart="80.00">
        <route edges="-23515274#0.31 31310204#0 31310204#1 323130961#0 edge_3_1 323130961#2 323130961#3 398475534#0 398475534#0.42 398475534#2 398475534#3 gneE157 gneE105 gneE116 gneE111 gneE132 -49978384#8 edge_6_1 -49978384#5 -49978384#3 -49978384#2 -49978384#1 -49978384#0 -49978384#0.48 -354200538 -359732195#0 -79577221#1 -79577221#0 -79577224 -20576446#0 -79577220 -62022984 edge_13_2 -31316108#4 -31316108#3 -31316108#2 -31316108#1 -31105512#4"/>
    </vehicle>
    <vehicle id="41" depart="82.00">
        <route edges="edge_14_1 -450684229#0 24013466#0 24013466#2 -24013468#1 -24013468#0 203063425#0 31316108#1 31316108#1.2 31316108#2 31316108#3 31316108#4 edge_13_1 62022984 79577220 20576446#0 79577224 79577221#0 79577221#1 359732195#0 -37897348#1 -37897348#0 -175566795 -172307881#1 -172307881#0 edge_12_2 -354199320#0 edge_11_2 -52760167#1 -52760145 backup_11_2 -13995411#1 -13995411#0 172307882#2 172307882#3 172307882#1 13995411#0 13995411#1 edge_11_1 52760145 52760167#1 52760167#2 354199320#0 edge_12_1 172307881#0 172307881#1 175566795 37897348#0 37897348#1 -359732195#0 -79577221#1 -79577221#0 -79577224 -20576446#0 -79577220 -62022984 edge_13_2 -31316108#4 -31316108#3"/>
    </vehicle>
    <vehicle id="42" depart="84.00">
        <route edges="gneE157 gneE105 gneE116 gneE111 gneE132 -49978384#8 edge_6_1 -49978384#5 -49978384#3 -49978384#2 -49978384#1 -49978384#0 -49978384#0.48 -354200538 -359732195#0 -79577221#1 -79577221#0 -79577224 -20576446#0 -79577220 -62022984 edge_13_2 -31316108#4 -31316108#3 -31316108#2 -31316108#1 -203063425#0 -23268145#0 23919029#0 23919029#1 23919029#2 23919029#3 23919029#4 23919029#6 edge_18_1"/>
    </vehicle>
    <vehicle id="44" depart="88.00">
        <route edges="172653131#2 -49978384#3 -49978384#2 -49978384#1 -49978384#0 -49978384#0.48 -354200538 -359732195#0 -79577221#1 -79577221#0 -79577224 -20576446#0 -79577220 -62022984 edge_13_2 -31316108#4 32773514#1 24013466#0 24013466#2 -24013468#1 -24013468#0 203063425#0 31316108#1 31316108#1.2"/>
    </vehicle>
    <vehicle id="46" depart="92.00">
        <route edges="172653131#2 49978384#5 edge_6_2 49978384#8 -gneE132 gneE97 gneE97.53 gneE120 gneE160 -398475534#3 -398475534#2 -398475534#1 -398475534#1.10 -323130961#3 -323130961#2 52081854"/>
    </vehicle>
    <vehicle id="50" depart="100.00">
        <route edges="31316108#4 edge_13_1 62022984 79577220 20576446#0 79577224 79577221#0 79577221#1 359732195#0 354200538 49978384#0 49978384#0.7 49978384#1"/>
    </vehicle>
    <vehicle id="51" depart="102.00">
        <route edges="-31316108#3 -31316108#2 -31316108#1 -203063425#0 -23268145#0 23919029#0 23919029#1"/>
    </vehicle>
    <vehicle id="54" depart="108.00">
        <route edges="edge_3_1 323130961#2 323130961#3 398475534#0 398475534#0.42 398475534#2 398475534#3 gneE157 gneE105 gneE116 gneE111 gneE132 -49978384#8 edge_6_1 -49978384#5 -49978384#3 -49978384#2 -49978384#1 -49978384#0 -49978384#0.48 -354200538 -37897348#1 -37897348#0 -175566795 -172307881#1 -172307881#0 edge_12_2 -354199320#0 edge_11_2 -52760167#1 -52760145 backup_11_2 -13995411#1 -13995411#0 172307882#2 172307882#3 172307882#1 13995411#0 13995411#1 edge_11_1 52760145 52760167#1 52760167#2 354199320#0 edge_12_1 172307881#0 172307881#1 175566795 37897348#0 37897348#1 354200538 49978384#0 49978384#0.7 49978384#1 49978384#2 49978384#3 49978384#5 edge_6_2 49978384#8 -gneE132 gneE97 gneE97.53 gneE120 gneE160 -398475534#3 -398475534#2 -398475534#1 -398475534#1.10 -323130961#3 -323130961#2 edge_3_2 -323130961#0 -31310204#1 -31310204#0 -301053639#1 -301053639#0 -136827200 -323130964 -351625607 23515279 23515278 323130963 29426937 136827199"/>
    </vehicle>
    <vehicle id="55" depart="110.00">
        <route edges="-31316108#4 32773514#1 24013466#0 24013466#2 -24013468#1 -24013468#0 203063425#0 31316108#1 31316108#1.2 31316108#2 31316108#3 31316108#4 edge_13_1 62022984"/>
    </vehicle>
    <vehicle id="56" depart="112.00">
        <route edges="323130961#2 323130961#3 398475534#0 398475534#0.42 398475534#2 398475534#3 gneE157 gneE105 gneE116 gneE111 gneE132 -49978384#8 edge_6_1 -49978384#5 -49978384#3 -49978384#2 -49978384#1 -49978384#0 -49978384#0.48 -354200538 -37897348#1 -37897348#0 -175566795 -172307881#1 -172307881#0 edge_12_2 -354199320#0 edge_11_2 -52760167#1 -52760145 backup_11_2 -13995411#1 -13995411#0 172307882#2"/>
    </vehicle>
    <vehicle id="58" depart="116.00">
        <route edges="398475534#0.42 398475534#2 398475534#3 gneE157 gneE105 gneE116 gneE111 gneE132 -49978384#8 edge_6_1 -49978384#5 -49978384#3 -49978384#2 -49978384#1 -49978384#0 -49978384#0.48 -354200538 -37897348#1 -37897348#0 -175566795 -172307881#1 -172307881#0 edge_12_2 -354199320#0 edge_11_2 -52760167#1"/>
    </vehicle>
    <vehicle id="60" depart="120.00">
        <route edges="323130965#0 323130965#1 31310204#0 31310204#1 323130961#0 edge_3_1 323130961#2 323130961#3 398475534#0 398475534#0.42 398475534#2 398475534#3 gneE157 gneE105 gneE116 gneE111 gneE132 -49978384#8 edge_6_1 -49978384#5 -49978384#3"/>
    </vehicle>
    <vehicle id="64" depart="128.00">
        <route edges="203063425#0 31316108#1 31316108#1.2 31316108#2 31316108#3 31316108#4 edge_13_1 62022984 79577220 20576446#0 79577224 79577221#0 79577221#1 359732195#0 354200538 49978384#0 49978384#0.7 49978384#1 49978384#2 49978384#3 49978384#5 edge_6_2 49978384#8 -gneE132"/>
    </vehicle>
    <vehicle id="66" depart="132.00">
        <route edges="edge_15_1 297577036#7 297577036#8 23268145#0 203063425#0 31316108#1 31316108#1.2 31316108#2 31316108#3 31316108#4 edge_13_1 62022984"/>
    </vehicle>
    <vehicle id="67" depart="134.00">
        <route edges="-354200538 -37897348#1 -37897348#0 -175566795 -172307881#1 -172307881#0 edge_12_2"/>
    </vehicle>
    <vehicle id="68" depart="136.00">
        <route edges="-23919029#4 -23919029#3 -23919029#2 -23919029#1 -23919029#0 23268145#0 203063425#0 31316108#1 31316108#1.2 31316108#2 31316108#3 31316108#4 edge_13_1 62022984 79577220 20576446#0 79577224 79577221#0 79577221#1 359732195#0 -37897348#1 -37897348#0 -175566795 -172307881#1 -172307881#0 edge_12_2 -354199320#0 edge_11_2 -52760167#1 -52760145 backup_11_2 -13995411#1 -13995411#0 172307882#2 172307882#3 172307882#1 13995411#0 13995411#1 edge_11_1 52760145 52760167#1 52760167#2 354199320#0 edge_12_1 172307881#0 172307881#1 175566795 37897348#0 37897348#1"/>
    </vehicle>
    <vehicle id="69" depart="138.00">
        <route edges="-79577224 -20576446#0 -79577220 -62022984 edge_13_2 -31316108#4 32773514#1 24013466#0 24013466#2 -24013468#1 -24013468#0 203063425#0 31316108#1 31316108#1.2 31316108#2 31316108#3 31316108#4 edge_13_1 62022984 79577220 20576446#0 79577224 79577221#0 79577221#1 359732195#0 354200538 49978384#0 49978384#0.7 49978384#1 49978384#2 49978384#3 49978384#5 edge_6_2 49978384#8 -gneE132 gneE97 gneE97.53 gneE120 gneE160 -398475534#3 -398475534#2 -398475534#1 -398475534#1.10 -323130961#3 -323130961#2 edge_3_2 -323130961#0 -31310204#1 -31310204#0 -323130965#1 -323130965#0 edge_2_2"/>
    </vehicle>
    <vehicle id="71" depart="142.00">
        <route edges="31316108#2 31316108#3 31316108#4 edge_13_1 62022984 79577220 20576446#0 79577224 79577221#0 79577221#1 359732195#0 -37897348#1 -37897348#0 117889472.16"/>
    </vehicle>
    <vehicle id="73" depart="146.00">
        <route edges="24596923#0.35 52775226#2 52775226#3 172307882#1 13995411#0 13995411#1 edge_11_1 52760145 52760167#1 52760167#2 354199320#0 edge_12_1 172307881#0 172307881#1 175566795 37897348#0 37897348#1 354200538 49978384#0 49978384#0.7 49978384#1 49978384#2 49978384#3 49978384#5 edge_6_2 49978384#8 -gneE132"/>
    </vehicle>
    <vehicle id="75" depart="150.00">
        <route edges="-359732195#0 -79577221#1 -79577221#0 -79577224 -20576446#0 -79577220 -62022984 edge_13_2 -31316108#4 32773514#1 24013466#0 24013466#2 -24013468#1 -24013468#0 203063425#0 31316108#1 31316108#1.2 31316108#2 31316108#3 31316108#4 edge_13_1 62022984 79577220 20576446#0 79577224 79577221#0 79577221#1 359732195#0 -37897348#1 -37897348#0 -175566795 -172307881#1 -172307881#0 edge_12_2 -354199320#0 -37897347#3 -37897347#2 -37897347#0 -22911947#1 -22911947#0"/>
    </vehicle>
    <vehicle id="76" depart="152.00">
        <route edges="backup_11_2 -13995411#1 -13995411#0 172307882#2 172307882#3 172307882#1 13995411#0 13995411#1 edge_11_1 52760145 52760167#1 52760167#2 354199320#0 edge_12_1 172307881#0 172307881#1 175566795 37897348#0 37897348#1 354200538 49978384#0 49978384#0.7 49978384#1 49978384#2 49978384#3 49978384#5 edge_6_2 49978384#8 -gneE132 gneE97 gneE97.53 gneE120 gneE160 -398475534#3 -398475534#2 -398475534#1 -398475534#1.10 -323130961#3 -323130961#2"/>
    </vehicle>
    <vehicle id="77" depart="154.00">
        <route edges="27475065#6 27475065#6.52 31105512#0 31105512#1 31105512#2 31105512#4 31316108#1 31316108#1.2 31316108#2 31316108#3 31316108#4 edge_13_1 62022984 79577220 20576446#0 79577224 79577221#0 79577221#1 359732195#0 354200538 49978384#0 49978384#0.7 49978384#1 49978384#2 49978384#3 49978384#5 edge_6_2 49978384#8 -gneE132 gneE96 gneE106 gneE150 gneE125 gneE126 gneE127 gneE128 gneE129"/>
    </vehicle>
    <vehicle id="78" depart="156.00">
        <route edges="31105512#4 31316108#1 31316108#1.2 31316108#2 31316108#3 32773514#1 24013466#0 24013466#2 -24013468#1 -24013468#0"/>
    </vehicle>
    <vehicle id="81" depart="162.00">
        <route edges="323130965#1 -301053639#1 -301053639#0 -136827200 -323130964 -351625607 23515279 23515278 323130963"/>
    </vehicle>
    <vehicle id="82" depart="164.00">
        <route edges="24013466#2 -24013468#1 -24013468#0 203063425#0 -31105512#4 -31105512#4.31 -31105512#2 -31105512#1 -31105512#0 -gneE162 -95793135#6 -95793135#5 gneE165 -172031905"/>
    </vehicle>
    <vehicle id="85" depart="170.00">
        <route edges="323130959 351625607 323130964 136827200 301053639#0 301053639#1 31310204#0 31310204#1 323130961#0 edge_3_1 323130961#2 323130961#3 398475534#0 398475534#0.42 398475534#2 398475534#3 gneE157 gneE105 gneE150 gneE125 gneE126 gneE127 gneE128 gneE129 gneE130"/>
    </vehicle>
    <vehicle id="86" depart="172.00">
        <route edges="51582487#9 edge_12_1 172307881#0 172307881#1 175566795 37897348#0 37897348#1 -359732195#0 -79577221#1 -79577221#0 -79577224 -20576446#0 -79577220 -62022984 edge_13_2 -31316108#4 32773514#1 24013466#0 24013466#2 -24013468#1 -24013468#0 203063425#0 31316108#1 31316108#1.2 31316108#2 31316108#3 31316108#4 edge_13_1 62022984 79577220 20576446#0 79577224 79577221#0 79577221#1 359732195#0 -37897348#1 -37897348#0 -175566795 -172307881#1"/>
    </vehicle>
    <vehicle id="87" depart="174.00">
        <route edges="backup_11_2 -13995411#1 -13995411#0 172307882#2 172307882#3 172307882#1 13995411#0 13995411#1 edge_11_1 52760145 52760167#1 52760167#2 354199320#0 edge_12_1 172307881#0 172307881#1 175566795 37897348#0 37897348#1 -359732195#0 -79577221#1 -79577221#0 -79577224 -20576446#0 -79577220 -62022984 edge_13_2 -31316108#4 -31316108#3 -31316108#2 -31316108#1 -31105512#4 -31105512#4.31 -31105512#2 -31105512#1 -31105512#0"/>
    </vehicle>
    <vehicle id="91" depart="182.00">
        <route edges="359732195#0 -37897348#1 -37897348#0 -175566795 -172307881#1 -172307881#0 edge_12_2 -354199320#0 edge_11_2 -52760167#1 -52760145 backup_11_2 -13995411#1 -13995411#0 172307882#2 172307882#3 172307882#1 13995411#0 13995411#1 edge_11_1 52760145 52760167#1 52760167#2"/>
    </vehicle>
    <vehicle id="92" depart="184.00">
        <route edges="-172646847#0 gneE157 gneE105 gneE116 gneE111 gneE132 -49978384#8 edge_6_1 -49978384#5 -49978384#3 -49978384#2 -49978384#1 -49978384#0 -49978384#0.48 -354200538 -37897348#1 -37897348#0 -175566795 -172307881#1 -172307881#0 edge_12_2 -354199320#0 edge_11_2 -52760167#1 -52760145 backup_11_2 -13995411#1 -13995411#0 172307882#2 172307882#3 172307882#1 13995411#0 13995411#1 edge_11_1 52760145 52760167#1 52760167#2 354199320#0 edge_12_1 172307881#0 172307881#1 175566795 37897348#0 37897348#1 354200538 49978384#0 49978384#0.7 49978384#1 49978384#2 49978384#3 49978384#5 edge_6_2 49978384#8 -gneE132 gneE97 gneE97.53 gneE120 gneE160 172646847#0"/>
    </vehicle>
    <vehicle id="93" depart="186.00">
        <route edges="backup_11_2 -13995411#1 -13995411#0 172307882#2 172307882#3 172307882#1 13995411#0 13995411#1 edge_11_1 52760145 52760167#1 52760167#2 354199320#0 edge_12_1 172307881#0 172307881#1 175566795 37897348#0 37897348#1 -359732195#0 -79577221#1 -79577221#0 -79577224 -20576446#0 -79577220 -62022984 edge_13_2 -31316108#4 32773514#1 24013466#0 24013466#2 -24013468#1 -24013468#0"/>
    </vehicle>
    <vehicle id="96" depart="192.00">
        <route edges="edge_6_2 49978384#8 -gneE132 gneE97 gneE97.53 gneE120 gneE160 -398475534#3 -398475534#2 -398475534#1 -398475534#1.10 -323130961#3 -323130961#2 edge_3_2 -323130961#0 -31310204#1 -31310204#0 -301053639#1"/>
    </vehicle>
    <vehicle id="98" depart="196.00">
        <route edges="297577036#7 297577036#8 23268145#0 203063425#0 31316108#1 31316108#1.2 31316108#2 31316108#3 31316108#4 edge_13_1 62022984 79577220 20576446#0 79577224 79577221#0 79577221#1 359732195#0 354200538 49978384#0 49978384#0.7 49978384#1 49978384#2 49978384#3 49978384#5 edge_6_2 49978384#8 -gneE132 gneE97 gneE97.53 gneE120"/>
    </vehicle>
    <vehicle id="99" depart="198.00">
        <route edges="31105512#4 31316108#1 31316108#1.2 31316108#2 31316108#3 31316108#4 edge_13_1 62022984 79577220 20576446#0 79577224 79577221#0 79577221#1 359732195#0 -37897348#1 -37897348#0 -175566795 -172307881#1 -172307881#0 edge_12_2 -354199320#0"/>
    </vehicle>
    <vehicle id="104" depart="208.00">
        <route edges="-23919029#1 -23919029#0 23268145#0 203063425#0 31316108#1 31316108#1.2 31316108#2 31316108#3 31316108#4 edge_13_1 62022984 79577220 20576446#0 79577224 79577221#0 79577221#1 359732195#0 354200538 49978384#0 49978384#0.7 49978384#1 49978384#2 49978384#3 49978384#5 edge_6_2 49978384#8 -gneE132 gneE97 gneE97.53 gneE120 gneE160 -398475534#3 -398475534#2 -398475534#1 -398475534#1.10 -323130961#3 -323130961#2 edge_3_2"/>
    </vehicle>
    <vehicle id="106" depart="212.00">
        <route edges="31310204#0 31310204#1 323130961#0 edge_3_1 323130961#2 323130961#3 398475534#0 398475534#0.42 398475534#2 398475534#3 gneE157 gneE105 gneE116 gneE111 gneE132 -49978384#8 edge_6_1 -49978384#5 -49978384#3 -49978384#2 -49978384#1 -49978384#0 -49978384#0.48 -354200538 -359732195#0 -79577221#1 -79577221#0 -79577224 -20576446#0 -79577220 -62022984 edge_13_2 -31316108#4 -31316108#3 -31316108#2 -31316108#1 -31105512#4 -31105512#4.31 -31105512#2 -31105512#1 -31105512#0 -gneE162 -95793135#6 -172653123#8"/>
    </vehicle>
    <vehicle id="108" depart="216.00">
        <route edges="gneE157 gneE105 gneE116 gneE111 gneE132 -49978384#8 edge_6_1 -49978384#5 -49978384#3 -49978384#2 -49978384#1 -49978384#0 -49978384#0.48 -354200538 -359732195#0 -79577221#1 -79577221#0 -79577224 -20576446#0 -79577220 -62022984 edge_13_2 -31316108#4 -31316108#3 -31316108#2 -31316108#1 -203063425#0 -23268145#0"/>
    </vehicle>
    <vehicle id="111" depart="222.00">
        <route edges="-450684229#0 24013466#0 24013466#2 -24013468#1 -24013468#0 203063425#0 31316108#1 31316108#1.2 31316108#2 31316108#3 31316108#4 edge_13_1 62022984 79577220 20576446#0 79577224 79577221#0 79577221#1 359732195#0 354200538 49978384#0 49978384#0.7 49978384#1 49978384#2 49978384#3 49978384#5 edge_6_2 49978384#8 -gneE132 gneE97 gneE97.53 gneE120 gneE160 -398475534#3 -398475534#2 -398475534#1 -398475534#1.10 -323130961#3 -323130961#2 edge_3_2 -323130961#0 -31310204#1 -31310204#0 -301053639#1 -301053639#0 -136827200 -323130964 -351625607 23515279 23515278 323130963 29426937"/>
    </vehicle>
    <vehicle id="115" depart="230.00">
        <route edges="79577221#0 79577221#1 359732195#0 -37897348#1 -37897348#0 -175566795 -172307881#1 -172307881#0 edge_12_2 -354199320#0 edge_11_2 -52760167#1"/>
    </vehicle>
    <vehicle id="116" depart="232.00">
        <route edges="62022984 79577220 20576446#0 79577224 79577221#0 79577221#1 359732195#0 -37897348#1 -37897348#0 -175566795 -172307881#1 -172307881#0 edge_12_2 -354199320#0 -37897347#3 -37897347#2 -37897347#0 -22911947#1"/>
    </vehicle>
    <vehicle id="118" depart="236.00">
        <route edges="79577219#4 -49978384#5 -49978384#3 -49978384#2 -49978384#1 -49978384#0 -49978384#0.48 -354200538 -37897348#1 -37897348#0 -175566795 -172307881#1 -172307881#0 edge_12_2 -354199320#0 edge_11_2 -52760167#1 -52760145 backup_11_2 -13995411#1 -13995411#0 172307882#2 172307882#3 172307882#1 13995411#0 13995411#1 edge_11_1"/>
    </vehicle>
    <vehicle id="119" depart="238.00">
        <route edges="323130961#0 edge_3_1 323130961#2 323130961#3 398475534#0 398475534#0.42 398475534#2 398475534#3 gneE157 gneE105 gneE116 gneE111 gneE132 -49978384#8 edge_6_1 -49978384#5 -49978384#3 -49978384#2 -49978384#1 -49978384#0 -49978384#0.48 -354200538 -37897348#1 -37897348#0 -175566795 -172307881#1 -172307881#0 edge_12_2 -354199320#0 edge_11_2 -52760167#1 -52760145 backup_11_2 -13995411#1 -13995411#0 172307882#2 172307882#3 172307882#1 13995411#0"/>
    </vehicle>
    <vehicle id="121" depart="242.00">
        <route edges="37897346 22911947#0 22911947#1 37897347#0 37897347#2 37897347#3 354199320#0 edge_12_1 172307881#0 172307881#1 175566795 37897348#0 37897348#1 -359732195#0 -79577221#1 -79577221#0 -79577224 -20576446#0 -79577220 -62022984 edge_13_2 -31316108#4 -31316108#3 -31316108#2 -31316108#1"/>
    </vehicle>
    <vehicle id="122" depart="244.00">
        <route edges="-23919029#1 -23919029#0 23268145#0 203063425#0 31316108#1 31316108#1.2 31316108#2 31316108#3 31316108#4 edge_13_1 62022984 79577220 20576446#0 79577224 79577221#0 79577221#1 359732195#0 -37897348#1 -37897348#0 -175566795 -172307881#1 -172307881#0 edge_12_2 -354199320#0 edge_11_2 -52760167#1 -52760145 backup_11_2 -13995411#1 -13995411#0 172307882#2 172307882#3 172307882#1 13995411#0 13995411#1 edge_11_1 52760145 52760167#1 52760167#2 354199320#0 edge_12_1 172307881#0 172307881#1 175566795 37897348#0 37897348#1 -359732195#0 -79577221#1 -79577221#0 -79577224 -20576446#0 -79577220 -62022984 edge_13_2 -31316108#4 -31316108#3 -31316108#2"/>
    </vehicle>
    <vehicle id="124" depart="248.00">
        <route edges="95793135#5 95793135#6 gneE162 31105512#0 31105512#1 31105512#2 31105512#4 31316108#1 31316108#1.2 31316108#2 31316108#3 31316108#4 edge_13_1 62022984 79577220 20576446#0 79577224 79577221#0 79577221#1 359732195#0 354200538 49978384#0 49978384#0.7 49978384#1 49978384#2 49978384#3 49978384#5 edge_6_2 49978384#8 -gneE132 gneE97 gneE97.53 gneE120 gneE160 -398475534#3 -398475534#2 -398475534#1 -398475534#1.10 -323130961#3 -323130961#2 edge_3_2 -323130961#0 -31310204#1 -31310204#0 -301053639#1"/>
    </vehicle>
    <vehicle id="126" depart="252.00">
        <route edges="-23919029#3 -23919029#2 -23919029#1 -23919029#0 23268145#0 203063425#0 31316108#1 31316108#1.2 31316108#2 31316108#3 31316108#4 edge_13_1 62022984 79577220 20576446#0 79577224 79577221#0 79577221#1 359732195#0 354200538 49978384#0 49978384#0.7 49978384#1 49978384#2 49978384#3 49978384#5 edge_6_2 49978384#8 -gneE132 gneE97 gneE97.53 gneE120 gneE160 -398475534#3 -398475534#2 -398475534#1 -398475534#1.10 -323130961#3 -323130961#2 edge_3_2 -323130961#0 -31310204#1 -31310204#0 -301053639#1 -301053639#0 -136827200 -323130964"/>
    </vehicle>
    <vehicle id="129" depart="258.00">
        <route edges="62022984 79577220 20576446#0 79577224 79577221#0 79577221#1 359732195#0 -37897348#1 -37897348#0 -175566795 -172307881#1 -172307881#0 edge_12_2 -354199320#0 edge_11_2 -52760167#1 -52760145 backup_11_2 -13995411#1 -13995411#0 172307882#2 172307882#3 172307882#1 13995411#0 13995411#1 edge_11_1 52760145 52760167#1 52760167#2 354199320#0 edge_12_1 172307881#0 172307881#1 175566795 37897348#0 37897348#1 -359732195#0 -79577221#1 -79577221#0 -79577224 -20576446#0 -79577220 -62022984 edge_13_2 -31316108#4 32773514#1 24013466#0 24013466#2 -24013468#1"/>
    </vehicle>
    <vehicle id="132" depart="264.00">
        <route edges="24013466#0 24013466#2 -24013468#1 -24013468#0 203063425#0 -31105512#4 -31105512#4.31 -31105512#2 -31105512#1 -31105512#0 -gneE162 -95793135#6 -95793135#5 gneE165 -95793135#3 edge_16_2"/>
    </vehicle>
    <vehicle id="133" depart="266.00">
        <route edges="-62022984 edge_13_2 -31316108#4 32773514#1 24013466#0 24013466#2 -24013468#1 -24013468#0 203063425#0 31316108#1 31316108#1.2 31316108#2 31316108#3 31316108#4 edge_13_1 62022984 79577220 20576446#0 79577224"/>
    </vehicle>
    <vehicle id="134" depart="268.00">
        <route edges="31310204#1 323130961#0 edge_3_1 323130961#2 323130961#3 398475534#0 398475534#0.42 398475534#2 398475534#3 gneE157 gneE105 gneE116 gneE111 gneE132 -49978384#8 edge_6_1 -49978384#5 -49978384#3 -49978384#2 -49978384#1 -49978384#0 -49978384#0.48 -354200538 -359732195#0 -79577221#1 -79577221#0 -79577224 -20576446#0 -79577220 -62022984"/>
    </vehicle>
    <vehicle id="135" depart="270.00">
        <route edges="398475534#0.42 398475534#2 398475534#3 gneE157 gneE105 gneE116 gneE111 gneE132 -49978384#8 edge_6_1 -49978384#5 -49978384#3 -49978384#2 -49978384#1 -49978384#0 -49978384#0.48 -354200538 -359732195#0 -79577221#1 -79577221#0 -79577224 -20576446#0 -79577220 -62022984 edge_13_2 -31316108#4 32773514#1 24013466#0 24013466#2 -24013468#1"/>
    </vehicle>
    <vehicle id="138" depart="276.00">
        <route edges="172307881#0 172307881#1 -173117890#1"/>