<?xml version="1.0" encoding="UTF-8"?>

<!-- generated on 01/21/20 14:28:30 by Eclipse SUMO duarouter Version 1.4.0
<configuration xmlns:xsi="http://www.w3.org/2001/XMLSchema-instance" xsi:noNamespaceSchemaLocation="http://sumo.dlr.de/xsd/duarouterConfiguration.xsd">

    <input>
        <net-file value="sn_red.net.xml"/>
        <additional-files value="sn_red.add.xml"/>
        <route-files value="trips.trips.xml"/>
    </input>

    <output>
        <output-file value="trips.trips.xml.tmp"/>
        <write-trips value="true"/>
    </output>

    <time>
        <begin value="0"/>
        <end value="1000.0"/>
    </time>

    <report>
        <no-warnings value="true"/>
        <ignore-errors value="true"/>
        <no-step-log value="true"/>
    </report>

</configuration>
-->

<routes xmlns:xsi="http://www.w3.org/2001/XMLSchema-instance" xsi:noNamespaceSchemaLocation="http://sumo.dlr.de/xsd/routes_file.xsd">
    <vType id="passenger1" length="5.00" minGap="1.50" maxSpeed="70.00" probability="0.40" speedFactor="normc(1.00,0.10,0.20,2.00)" vClass="passenger" guiShape="passenger/sedan" color="204,51,51" accel="2.6" decel="4.5" sigma="0.5"/>
    <trip id="0" type="passenger1" depart="0.00" departPos="random" departSpeed="0.00" from="323130960" to="25391547#2"/>
</routes>
